[TITLE]

[JUNCTIONS]
 65                                  108.0520
 421                                 104.6380
 835                                  98.7430
 977                                 100.5390
 1369                                101.3520
 2282                                101.8350
 2675                                107.8750
 3686                                113.0720
 4311                                103.8510
 4323                                 99.0420
 4341                                106.4440
 4605                                101.8280
 5128                                130.3550
 245                                 130.3550
 693                                 100.8330
 1208                                 99.2310
 1402                                 97.9450
 2923                                 93.3670
 3870                                 96.6210
 4053                                 97.4470
 4057                                100.1140
 5130                                100.8330
 5131                                 99.2310
 5132                                 97.9450
 5133                                 93.3670
 5134                                 96.6210
 5135                                 97.4470
 5136                                100.1140
 1                                   108.1440
 2                                   106.0960
 3                                   104.9470
 4                                   103.0590
 5                                   102.5010
 6                                   101.9370
 7                                   101.1880
 8                                   100.6730
 9                                   100.4560
 10                                  100.1770
 11                                  100.0280
 12                                   99.9740
 13                                   99.7080
 14                                   99.4600
 15                                   99.2910
 16                                   99.0420
 17                                   98.8570
 18                                   98.6370
 19                                   98.4350
 20                                   98.1920
 21                                   96.0060
 22                                   98.9220
 23                                   99.5440
 24                                  100.0920
 25                                  100.8330
 26                                  101.7200
 27                                  102.0470
 28                                  103.0070
 29                                  103.6130
 30                                  104.0930
 31                                  105.0370
 32                                  105.4000
 33                                  106.0970
 34                                  106.5760
 35                                  107.3360
 36                                  107.8800
 37                                  108.6610
 38                                  109.6890
 39                                  110.5420
 40                                  111.4370
 41                                  112.2490
 42                                  113.1680
 43                                  108.9480
 44                                  102.6320
 45                                  100.3070
 46                                   99.6850
 47                                   98.8380
 48                                   95.9760
 49                                   98.6430
 50                                  101.3180
 51                                  104.3050
 52                                  106.4980
 53                                  109.6260
 54                                  113.5450
 55                                  109.6900
 56                                  104.1770
 57                                  100.1710
 58                                   99.4960
 59                                   98.6880
 60                                   95.9550
 61                                   98.4790
 62                                  101.1440
 63                                  103.8500
 64                                  106.4710
 66                                  108.8260
 67                                  109.6180
 68                                  113.8580
 69                                  109.9510
 70                                  104.3700
 71                                  101.0160
 72                                   99.2520
 73                                   98.5310
 74                                   95.9150
 75                                   98.4420
 76                                  100.7820
 77                                  103.5810
 78                                  106.2940
 79                                  109.5250
 80                                  113.8820
 81                                  109.9920
 82                                  107.6750
 83                                  106.6260
 84                                  105.7970
 85                                  104.7390
 86                                  103.8490
 87                                  102.7880
 88                                  101.8810
 89                                  101.1310
 90                                  100.4870
 91                                   99.3640
 92                                   99.2010
 93                                   99.0950
 94                                   98.8770
 95                                   98.8050
 96                                   98.5580
 97                                   98.4110
 98                                   98.2280
 99                                   98.0620
 100                                  95.9120
 101                                  95.8960
 102                                  98.4970
 103                                  98.7780
 104                                  99.4100
 105                                 100.2240
 106                                 100.6530
 107                                 101.3560
 108                                 102.0700
 109                                 102.8170
 110                                 103.6370
 111                                 103.8470
 112                                 104.7130
 113                                 105.2350
 114                                 106.3030
 115                                 107.1370
 116                                 108.3810
 117                                 109.0950
 118                                 109.8100
 119                                 111.1180
 120                                 112.0580
 121                                 113.3420
 122                                 114.6080
 123                                 109.7640
 124                                 104.5750
 125                                 100.8580
 126                                  99.1120
 127                                  98.8400
 128                                  98.5660
 129                                  98.2890
 130                                  97.9700
 131                                  95.8560
 132                                  98.5550
 133                                  99.1470
 134                                 100.2060
 135                                 103.2930
 136                                 106.1320
 137                                 108.3360
 138                                 109.9690
 139                                 111.9900
 140                                 114.3220
 141                                 109.5610
 142                                 104.1310
 143                                 100.7680
 144                                  99.6910
 145                                  99.0560
 146                                  98.8840
 147                                  98.7670
 148                                  98.6270
 149                                  98.4630
 150                                  98.2960
 151                                  98.2160
 152                                  98.0130
 153                                  97.9540
 154                                  95.8260
 155                                  97.8830
 156                                  98.4740
 157                                  98.7060
 158                                  99.0120
 159                                  99.6590
 160                                 100.3240
 161                                 103.0450
 162                                 105.8610
 163                                 106.9200
 164                                 107.9530
 165                                 109.1970
 166                                 110.1460
 167                                 110.9390
 168                                 111.9190
 169                                 113.3040
 170                                 114.6810
 171                                 108.6440
 172                                 103.0640
 173                                  99.6620
 174                                  98.8650
 175                                  98.6630
 176                                  98.3820
 177                                  98.1520
 178                                  97.8560
 179                                  97.8300
 180                                  98.5090
 181                                  98.8100
 182                                 100.1430
 183                                 102.9280
 184                                 105.6430
 185                                 107.5390
 186                                 109.5070
 187                                 111.6880
 188                                 114.0520
 189                                 143.3860
 190                                 140.3330
 191                                 139.9210
 192                                 138.1900
 193                                 138.0550
 194                                 137.0800
 195                                 135.8940
 196                                 133.9120
 197                                 131.7580
 198                                 107.5650
 199                                 106.3430
 200                                 104.3170
 201                                 102.6410
 202                                 102.0060
 203                                 100.9400
 204                                 100.6320
 205                                  99.7320
 206                                  99.0880
 207                                  99.0160
 208                                  98.8770
 209                                  98.7330
 210                                  98.6380
 211                                  98.4810
 212                                  98.3140
 213                                  98.2080
 214                                  98.0780
 215                                  97.9470
 216                                  97.7930
 217                                  95.7660
 218                                  95.7740
 219                                  97.9150
 220                                  98.1300
 221                                  98.3500
 222                                  98.4950
 223                                  98.6050
 224                                  98.8480
 225                                  99.3220
 226                                  99.6640
 227                                 100.8540
 228                                 101.2860
 229                                 102.0650
 230                                 102.8370
 231                                 103.5630
 232                                 104.2270
 233                                 104.7660
 234                                 105.7720
 235                                 106.4410
 236                                 107.3750
 237                                 108.4400
 238                                 109.0080
 239                                 110.5110
 240                                 112.0970
 241                                 113.0650
 242                                 114.6510
 243                                 141.7470
 244                                 136.5890
 246                                 107.0670
 247                                 100.6770
 248                                  99.3090
 249                                  99.0950
 250                                  98.7550
 251                                  98.5260
 252                                  98.2650
 253                                  98.0450
 254                                  97.8730
 255                                  97.7440
 256                                  95.7380
 257                                  97.7870
 258                                  98.4920
 259                                  98.8760
 260                                  99.8020
 261                                 101.2370
 262                                 102.5340
 263                                 103.9560
 264                                 105.3670
 265                                 107.2290
 266                                 109.5460
 267                                 111.6120
 268                                 114.6270
 269                                 139.2440
 270                                 135.5570
 271                                 128.5570
 272                                 105.4700
 273                                  99.9420
 274                                  99.3170
 275                                  99.1920
 276                                  99.0870
 277                                  99.0150
 278                                  98.8550
 279                                  98.7120
 280                                  98.5910
 281                                  98.4400
 282                                  98.3360
 283                                  98.2120
 284                                  98.0870
 285                                  97.9740
 286                                  97.8800
 287                                  97.7210
 288                                  95.7150
 289                                  97.6860
 290                                  98.5290
 291                                  98.7040
 292                                  98.8740
 293                                  99.0090
 294                                  99.6990
 295                                 100.3670
 296                                 101.0590
 297                                 101.4610
 298                                 102.2050
 299                                 102.9100
 300                                 103.7340
 301                                 104.3830
 302                                 105.0520
 303                                 106.1080
 304                                 107.2350
 305                                 107.8220
 306                                 108.9380
 307                                 110.3520
 308                                 111.3380
 309                                 113.1090
 310                                 114.7440
 311                                 138.1180
 312                                 134.7270
 313                                 128.9040
 314                                 104.4470
 315                                  99.3900
 316                                  99.1400
 317                                  98.9230
 318                                  98.6360
 319                                  98.3900
 320                                  98.0980
 321                                  97.8750
 322                                  97.7350
 323                                  95.6830
 324                                  95.6740
 325                                  97.8610
 326                                  98.5180
 327                                  98.8750
 328                                  99.7010
 329                                 101.0370
 330                                 101.7100
 331                                 103.1770
 332                                 104.1650
 333                                 106.4400
 334                                 108.1630
 335                                 111.5900
 336                                 113.7050
 337                                 137.7850
 338                                 136.6010
 339                                 135.6190
 340                                 134.8820
 341                                 134.1920
 342                                 133.0090
 343                                 131.3730
 344                                 129.6280
 345                                 128.0630
 346                                 110.1110
 347                                 108.3510
 348                                 105.8840
 349                                 104.9910
 350                                 103.3340
 351                                 101.6940
 352                                 101.1020
 353                                  99.9530
 354                                  99.3240
 355                                  99.2030
 356                                  99.0670
 357                                  98.9590
 358                                  98.8620
 359                                  98.7120
 360                                  98.5740
 361                                  98.4670
 362                                  98.3430
 363                                  98.1730
 364                                  98.0650
 365                                  98.0220
 366                                  97.8090
 367                                  97.6650
 368                                  95.6500
 369                                  95.6740
 370                                  97.7920
 371                                  98.0350
 372                                  98.1650
 373                                  98.3460
 374                                  98.5190
 375                                  98.7010
 376                                  98.8840
 377                                  99.0660
 378                                  99.3930
 379                                  99.8810
 380                                 100.5490
 381                                 101.1860
 382                                 101.4630
 383                                 102.1010
 384                                 102.7710
 385                                 103.3830
 386                                 104.3460
 387                                 104.9410
 388                                 106.1460
 389                                 107.0220
 390                                 108.2200
 391                                 109.7860
 392                                 110.6520
 393                                 112.3960
 394                                 114.8210
 395                                 139.2700
 396                                 134.2090
 397                                 127.4350
 398                                 108.6610
 399                                 102.2540
 400                                 101.0650
 401                                  99.2880
 402                                  99.0500
 403                                  98.7770
 404                                  98.5140
 405                                  98.2880
 406                                  97.9980
 407                                  97.7880
 408                                  97.8270
 409                                  98.5520
 410                                  98.9180
 411                                  99.2810
 412                                 101.1380
 413                                 102.3500
 414                                 103.8150
 415                                 108.1420
 416                                 114.2070
 417                                 140.1900
 418                                 136.5470
 419                                 125.9800
 420                                 106.8250
 422                                 103.4450
 423                                 102.7740
 424                                 101.6280
 425                                 100.9970
 426                                 100.0520
 427                                  99.1960
 428                                  99.1020
 429                                  98.9750
 430                                  98.8500
 431                                  98.7170
 432                                  98.5680
 433                                  98.4670
 434                                  98.3420
 435                                  98.1680
 436                                  98.0720
 437                                  97.9270
 438                                  97.8420
 439                                  97.7170
 440                                  97.8220
 441                                  98.4930
 442                                  98.7060
 443                                  98.9250
 444                                  99.1120
 445                                  99.2010
 446                                 100.8620
 447                                 101.4480
 448                                 101.9970
 449                                 102.8300
 450                                 103.5470
 451                                 108.0600
 452                                 113.2910
 453                                 140.7310
 454                                 137.3460
 455                                 124.7690
 456                                 106.7930
 457                                 102.6470
 458                                 100.5260
 459                                  99.1310
 460                                  98.9120
 461                                  98.6630
 462                                  98.4180
 463                                  98.1810
 464                                  97.9070
 465                                  97.6780
 466                                  97.8260
 467                                  98.5500
 468                                  98.9140
 469                                  99.2250
 470                                 100.0950
 471                                 101.5840
 472                                 103.3770
 473                                 107.3740
 474                                 113.6310
 475                                 146.5800
 476                                 145.0030
 477                                 143.2710
 478                                 140.5070
 479                                 135.9690
 480                                 132.8800
 481                                 128.0070
 482                                 125.0200
 483                                 123.1900
 484                                 106.5900
 485                                 105.8360
 486                                 104.4620
 487                                 103.2420
 488                                 102.6250
 489                                 101.5040
 490                                 100.8740
 491                                  99.6540
 492                                  99.0760
 493                                  98.9590
 494                                  98.8290
 495                                  98.7540
 496                                  98.6320
 497                                  98.5080
 498                                  98.3470
 499                                  98.2320
 500                                  98.0990
 501                                  97.9800
 502                                  97.9160
 503                                  97.7120
 504                                  97.6120
 505                                  97.7980
 506                                  98.0540
 507                                  98.1830
 508                                  98.4370
 509                                  98.5520
 510                                  98.7400
 511                                  98.9390
 512                                  99.1060
 513                                  99.3090
 514                                  99.4930
 515                                  99.5820
 516                                  99.6920
 517                                  99.9550
 518                                 100.4500
 519                                 101.3180
 520                                 101.9620
 521                                 102.2780
 522                                 103.7350
 523                                 104.7810
 524                                 105.9690
 525                                 107.1900
 526                                 108.6860
 527                                 110.0450
 528                                 110.9160
 529                                 113.4990
 530                                 106.0310
 531                                 102.2600
 532                                  99.0200
 533                                  98.7780
 534                                  98.5330
 535                                  98.0600
 536                                  97.8200
 537                                  97.5800
 538                                  97.8370
 539                                  98.1680
 540                                  98.6590
 541                                  98.9500
 542                                  99.3350
 543                                 100.0230
 544                                 102.4140
 545                                 104.5800
 546                                 106.8680
 547                                 109.7500
 548                                 113.8230
 549                                 105.9400
 550                                 102.0030
 551                                  99.0250
 552                                  98.8590
 553                                  98.7630
 554                                  98.6140
 555                                  98.4910
 556                                  98.0010
 557                                  97.8790
 558                                  97.8110
 559                                  97.6340
 560                                  97.5130
 561                                  97.8000
 562                                  98.0110
 563                                  98.2660
 564                                  98.3950
 565                                  98.5910
 566                                  98.7790
 567                                  99.0240
 568                                  99.1650
 569                                  99.3170
 570                                 100.1240
 571                                 102.4660
 572                                 103.2720
 573                                 104.2490
 574                                 105.4630
 575                                 106.9140
 576                                 108.3300
 577                                 109.5490
 578                                 111.4800
 579                                 113.8590
 580                                 105.3200
 581                                 101.9920
 582                                  98.8950
 583                                  98.6430
 584                                  98.4250
 585                                  97.9820
 586                                  97.7250
 587                                  97.5170
 588                                  97.8520
 589                                  98.2130
 590                                  98.6120
 591                                  99.0020
 592                                  99.3880
 593                                 100.2330
 594                                 102.4360
 595                                 104.2340
 596                                 106.9280
 597                                 109.1950
 598                                 112.8520
 599                                 110.0340
 600                                 108.5810
 601                                 106.8380
 602                                 105.4890
 603                                 104.8170
 604                                 103.9060
 605                                 103.1310
 606                                 101.9450
 607                                 101.3920
 608                                 100.7280
 609                                  99.5910
 610                                  98.9760
 611                                  98.8150
 612                                  98.7430