[TITLE]


[JUNCTIONS]
;ID              	Elev        	Demand      	Pattern         
 11              	564         	0.063807    	Niederzone      	;
 12              	558         	0.057277    	Niederzone      	;
 13              	550         	0.055018    	Niederzone      	;
 14              	532         	0.046229    	Niederzone      	;
 15              	528         	0.028651    	Niederzone      	;
 16              	525         	0.028651    	Niederzone      	;
 17              	557         	0.055018    	Niederzone      	;
 18              	548         	0.055018    	Niederzone      	;
 19              	528         	0.043969    	Niederzone      	;
 20              	537         	0.03744     	Niederzone      	;
 21              	533         	0.028651    	Niederzone      	;
 22              	549         	0.046502    	Niederzone      	;
 23              	480         	0.046229    	Niederzone      	;
 24              	500         	0.013332    	Niederzone      	;
 25              	470         	0           	Niederzone      	;
 27              	522         	0           	Niederzone      	;
 28              	490         	0.046229    	Niederzone      	;
 29              	490         	0.028651    	Niederzone      	;
 30              	490         	0           	Niederzone      	;
 31              	516.2       	0           	Niederzone      	;
 32              	518.1       	0.028353    	Niederzone      	;
 33              	518.1       	0           	Niederzone      	;
 34              	528.4       	0.028353    	Niederzone      	;
 35              	531.6       	0           	Niederzone      	;
 36              	517.7       	0           	Niederzone      	;
 37              	519.5       	0.035727    	Niederzone      	;
 38              	521.4       	0           	Niederzone      	;
 39              	521.7       	0           	Niederzone      	;
 56              	471.2       	0           	Niederzone      	;
 57              	469.7       	0.038582    	Niederzone      	;
 61              	478.1       	0.0045434   	Niederzone      	;
 62              	506.5       	0.0031283   	Niederzone      	;
 63              	538.2       	0           	Niederzone      	;
 64              	529.3       	0.010775    	Niederzone      	;
 65              	521.7       	0.050474    	Niederzone      	;
 66              	528.3       	0           	Niederzone      	;
 67              	503.8       	0           	Niederzone      	;
 68              	502.22      	0.039699    	Niederzone      	;
 11A             	560         	0           	Niederzone      	;
 12A             	557         	0           	Niederzone      	;
 12B             	557         	0           	Niederzone      	;
 13A             	545         	0           	Niederzone      	;
 14A             	545         	0           	Niederzone      	;
 16A             	520         	0           	Niederzone      	;
 16B             	510         	0           	Niederzone      	;
 17A             	557         	0           	Niederzone      	;
 18A             	536.11      	0           	Niederzone      	;
 19A             	532.6       	0           	Niederzone      	;
 20A             	545.72      	0           	Niederzone      	;
 22A             	553         	0           	Niederzone      	;
 22B             	540.04      	0.0048165   	Niederzone      	;
 22C             	540.8       	0.0048165   	Niederzone      	;
 22D             	536.2       	0.0079448   	Niederzone      	;
 22E             	530.5       	0.0031283   	Niederzone      	;
 22F             	531.5       	0           	Niederzone      	;
 22G             	534.6       	0.012761    	Niederzone      	;
 24A             	498.2       	0           	Niederzone      	;
 25A             	471.2       	0           	Niederzone      	;
 27A             	530         	0           	Niederzone      	;
 28A             	490         	0           	Niederzone      	;
 28B             	520         	0           	Niederzone      	;
 29A             	490         	0           	Niederzone      	;
 30A             	490         	0           	Niederzone      	;
 30B             	490         	0.046229    	Niederzone      	;
 30C             	490         	0           	Niederzone      	;
 30D             	484         	0           	Niederzone      	;
 30E             	485         	0           	Niederzone      	;
 30F             	489.2       	0           	Niederzone      	;
 GWPWS           	473         	0           	Niederzone      	;
 GWPWT           	483.3       	0           	Niederzone      	;
 3               	638         	0.10034     	Hochzone        	;
 4               	605         	0.10034     	Hochzone        	;
 5               	595         	0.1471      	Hochzone        	;
 6               	618         	0.10034     	Hochzone        	;
 7               	590         	0.14825     	Hochzone        	;
 8               	592         	0.01253     	Hochzone        	;
 9               	585         	0.075276    	Hochzone        	;
 10              	563         	0.088958    	Hochzone        	;
 40              	595         	0           	Hochzone        	;
 41              	596.8       	0.06385     	Hochzone        	;
 42              	591.2       	0           	Hochzone        	;
 43              	593.2       	0           	Hochzone        	;
 44              	596         	0.031925    	Hochzone        	;
 45              	597.5       	0           	Hochzone        	;
 46              	594.6       	0           	Hochzone        	;
 47              	595.9       	0.031925    	Hochzone        	;
 48              	594.4       	0           	Hochzone        	;
 49              	582         	0           	Hochzone        	;
 50              	575.7       	0           	Hochzone        	;
 51              	592.5       	0.031925    	Hochzone        	;
 52              	581.3       	0.031925    	Hochzone        	;
 53              	588.8       	0.013682    	Hochzone        	;
 54              	575.8       	0.013682    	Hochzone        	;
 55              	574         	0           	Hochzone        	;
 3A              	647         	0           	Hochzone        	;
 40A             	593         	0           	Hochzone        	;
 40B             	590         	0           	Hochzone        	;
 40C             	588         	0           	Hochzone        	;
 44A             	595         	0           	Hochzone        	;
 4A              	605         	0           	Hochzone        	;
 4B              	595         	0           	Hochzone        	;
 4C              	597         	0           	Hochzone        	;
 4D              	596         	0           	Hochzone        	;
 51A             	585         	0           	Hochzone        	;
 5A              	592         	0           	Hochzone        	;
 5B              	592         	0           	Hochzone        	;
 5C              	595.5       	0           	Hochzone        	;
 6A              	612         	0           	Hochzone        	;
 6B              	625         	0           	Hochzone        	;
 6C              	598         	0           	Hochzone        	;
 6D              	608         	0           	Hochzone        	;
 7A              	588         	0           	Hochzone        	;
 7B              	589         	0           	Hochzone        	;
 7C              	589         	0           	Hochzone        	;
 7D              	590         	0           	Hochzone        	;
 8A              	590.4       	0           	Hochzone        	;
 8B              	584.2       	0.0079693   	Hochzone        	;
 8C              	584.3       	0           	Hochzone        	;
 8D              	580.2       	0           	Hochzone        	;
 8E              	570         	0           	Hochzone        	;
 9A              	580         	0           	Hochzone        	;
 9B              	568         	0           	Hochzone        	;
 9C              	581         	0           	Hochzone        	;
 9D              	578         	0           	Hochzone        	;
 7E              	589.4       	0           	Hochzone        	;
 1               	483         	0           	Niederzone      	;
 2               	473         	0           	Niederzone      	;

[RESERVOIRS]
;ID              	Head        	Pattern         
 R1              	473         	                	;
 R2              	483         	                	;

[TANKS]
;ID              	Elevation   	InitLevel   	MinLevel    	MaxLevel    	Diameter    	MinVol      	VolCurve
 HB1-NZ          	593.5       	2.4         	0           	2.5         	14.3        	0           	                	;
 HB2-HZ          	647         	2.2         	0           	3           	11.28       	0           	                	;
 SENSOR_HZ       	618         	20          	0           	20          	1           	0           	                	;
 SENSOR_NZ       	564         	20          	0           	20          	1           	0           	                	;

[PIPES]
;ID              	Node1           	Node2           	Length      	Diameter    	Roughness   	MinorLoss   	Status
 1               	HB1-NZ          	11              	223.688     	200         	0.4         	0           	Open  	;
 2               	11              	27A             	835.1962    	125         	0.4         	0           	Open  	;
 3               	11              	11A             	411.5899    	200         	0.4         	0           	Open  	;
 4               	11A             	12              	75.4862     	200         	0.4         	0           	Open  	;
 5               	12              	17A             	117.363     	200         	0.4         	0           	Open  	;
 6               	17A             	17              	34.6691     	200         	0.4         	0           	Open  	;
 7               	17              	18              	158.2164    	125         	0.4         	0           	Open  	;
 8               	18              	18A             	117.107     	125         	0.4         	0           	Open  	;
 9               	19              	24              	174.9303    	150         	0.4         	0           	Open  	;
 10              	11A             	17A             	168.0417    	125         	0.4         	0           	Open  	;
 11              	12              	12A             	26.9352     	150         	0.4         	0           	Open  	;
 12              	12A             	13              	168.9675    	150         	0.4         	0           	Open  	;
 13              	13              	14A             	67.0117     	150         	0.4         	0           	Open  	;
 14              	14A             	14              	221.287     	150         	0.4         	0           	Open  	;
 15              	14              	15              	77.3684     	150         	0.4         	0           	Open  	;
 16              	15              	21              	232.6775    	100         	0.4         	0           	Open  	;
 17              	18              	20A             	107.6258    	100         	0.4         	0           	Open  	;
 18              	20              	14              	229.9563    	100         	0.4         	0           	Open  	;
 19              	13              	13A             	37.4082     	100         	0.4         	0           	Open  	;
 20              	13A             	20              	87.1645     	80          	0.4         	0           	Open  	;
 21              	12A             	12B             	43.3008     	100         	0.4         	0           	Open  	;
 22              	12B             	14A             	236.5221    	100         	0.4         	0           	Open  	;
 23              	11A             	12B             	68.9148     	100         	0.4         	0           	Open  	;
 24              	17              	22A             	79.5382     	125         	0.4         	0           	Open  	;
 25              	22              	22B             	110.0071    	100         	0.4         	0           	Open  	;
 26              	15              	16              	206.2989    	150         	0.4         	0           	Open  	;
 27              	16              	16A             	171.9707    	125         	0.4         	0           	Open  	;
 28              	16A             	16B             	210.284     	125         	0.4         	0           	Open  	;
 29              	16B             	28              	463.0879    	125         	0.4         	0           	Open  	;
 30              	28              	28A             	44.3647     	80          	0.4         	0           	Open  	;
 31              	28A             	28B             	381.0453    	100         	0.4         	0           	Open  	;
 32              	28B             	39              	80.7334     	80          	0.4         	0           	Open  	;
 33              	27              	27A             	110.4461    	100         	0.4         	0           	Open  	;
 34              	28              	29              	104.242     	125         	0.4         	0           	Open  	;
 35              	29              	29A             	95.4682     	80          	0.4         	0           	Open  	;
 36              	29A             	30              	697.868     	93.6        	0.4         	0           	Open  	;
 37              	20              	21              	51.4219     	100         	0.4         	0           	Open  	;
 38              	29              	30A             	251.0025    	125         	0.4         	0           	Open  	;
 39              	30A             	30B             	139.9289    	125         	0.4         	0           	Open  	;
 40              	30B             	30C             	46.546      	125         	0.4         	0           	Open  	;
 41              	30B             	30              	524.0058    	93.6        	0.4         	0           	Open  	;
 42              	GWPWT           	30E             	127.3883    	125         	0.4         	0           	Open  	;
 43              	30E             	30F             	113.0155    	125         	0.4         	0           	Open  	;
 44              	30F             	31              	244.4747    	125         	0.4         	0           	Open  	;
 45              	31              	32              	31.4286     	125         	0.4         	0           	Open  	;
 46              	32              	33              	14.6823     	125         	0.4         	0           	Open  	;
 47              	33              	34              	200.1376    	125         	0.4         	0           	Open  	;
 48              	34              	35              	92.6282     	125         	0.4         	0           	Open  	;
 49              	35              	27A             	61.1673     	125         	0.4         	0           	Open  	;
 50              	32              	36              	48.0705     	100         	0.4         	0           	Open  	;
 51              	36              	37              	120.0409    	100         	0.4         	0           	Open  	;
 52              	37              	38              	42.3944     	100         	0.4         	0           	Open  	;
 53              	39              	27              	28.5086     	100         	0.4         	0           	Open  	;
 54              	39              	38              	102.3883    	100         	0.4         	0           	Open  	;
 55              	21              	19A             	270.5737    	80          	0.4         	0           	Open  	;
 56              	19A             	19              	145.2515    	100         	0.4         	0           	Open  	;
 57              	24              	24A             	184.785     	150         	0.4         	0           	Open  	;
 58              	24A             	25              	455.2439    	150         	0.4         	0           	Open  	;
 59              	25              	25A             	101.4969    	150         	0.4         	0           	Open  	;
 60              	GWPWS           	25A             	83.5094     	150         	0.4         	0           	Open  	;
 61              	56              	57              	105.6009    	80          	0.4         	0           	Open  	;
 62              	61              	62              	124.6477    	26          	0.4         	0           	Open  	;
 63              	56              	61              	93.1049     	80          	0.4         	0           	Open  	;
 64              	22A             	22              	80.1382     	125         	0.4         	0           	Open  	;
 65              	63              	22A             	123.1631    	125         	0.4         	0           	Open  	;
 66              	64              	63              	46.1281     	125         	0.4         	0           	Open  	;
 67              	64              	65              	208.3564    	125         	0.4         	0           	Open  	;
 68              	65              	24              	125.6361    	125         	0.4         	0           	Open  	;
 69              	18A             	19              	79.9285     	125         	0.4         	0           	Open  	;
 70              	18A             	66              	81.4288     	80          	0.4         	0           	Open  	;
 71              	66              	65              	66.514      	80          	0.4         	0           	Open  	;
 72              	68              	67              	107.6706    	125         	0.4         	0           	Open  	;
 73              	24A             	67              	122.4919    	125         	0.4         	0           	Open  	;
 74              	20A             	20              	396.4356    	100         	0.4         	0           	Open  	;
 75              	22B             	22C             	45.3406     	125         	0.4         	0           	Open  	;
 76              	22C             	22D             	72.228      	125         	0.4         	0           	Open  	;
 77              	22D             	22E             	101.9589    	125         	0.4         	0           	Open  	;
 78              	22G             	23              	1560.1835   	100         	0.4         	0           	Open  	;
 79              	22E             	22F             	25.3385     	125         	0.4         	0           	Open  	;
 80              	22F             	22G             	134.4498    	125         	0.4         	0           	Open  	;
 89              	30D             	30C             	261.5336    	125         	0.4         	0           	Open  	;
 90              	GWPWT           	30D             	62.843      	125         	0.4         	0           	Open  	;
 HZ2             	4B              	55              	68.1575     	125         	0.4         	0           	Open  	;
 HZ3             	9               	8               	131.4369    	125         	0.4         	0           	Open  	;
 HZ4             	8               	5               	73.9772     	125         	0.4         	0           	Open  	;
 HZ5             	5               	4               	111.9802    	125         	0.4         	0           	Open  	;
 HZ6             	4               	3               	289.0776    	125         	0.4         	0           	Open  	;
 HZ7             	3               	3A              	65.8421     	125         	0.4         	0           	Open  	;
 HZ8             	9B              	10              	100.3661    	100         	0.4         	0           	Open  	;
 HZ9             	4B              	4C              	40.357      	100         	0.4         	0           	Open  	;
 HZ10            	4A              	4               	75.5184     	80          	0.4         	0           	Open  	;
 HZ11            	5               	5C              	83.4622     	125         	0.4         	0           	Open  	;
 HZ12            	5A              	5B              	109.1657    	100         	0.4         	0           	Open  	;
 HZ13            	4               	6A              	178.9384    	80          	0.4         	0           	Open  	;
 HZ14            	6A              	6               	186.0576    	80          	0.4         	0           	Open  	;
 HZ15            	6               	6B              	83.8534     	80          	0.4         	0           	Open  	;
 HZ16            	6B              	3               	186.6967    	100         	0.4         	0           	Open  	;
 HZ17            	6B              	6A              	233.613     	100         	0.4         	0           	Open  	;
 HZ18            	5A              	40A             	17.926      	125         	0.4         	0           	Open  	;
 HZ19            	40A             	40              	116.544     	100         	0.4         	0           	Open  	;
 HZ20            	40              	41              	140.27      	100         	0.4         	0           	Open  	;
 HZ21            	41              	42              	103.5195    	100         	0.4         	0           	Open  	;
 HZ22            	42              	43              	129.1917    	100         	0.4         	0           	Open  	;
 HZ23            	5C              	5A              	61.6197     	125         	0.4         	0           	Open  	;
 HZ24            	46              	47              	78.3101     	100         	0.4         	0           	Open  	;
 HZ25            	47              	48              	44.6237     	100         	0.4         	0           	Open  	;
 HZ26            	48              	49              	85.3428     	100         	0.4         	0           	Open  	;
 HZ27            	49              	50              	75.3597     	100         	0.4         	0           	Open  	;
 HZ28            	51              	52              	191.3661    	100         	0.4         	0           	Open  	;
 HZ29            	49              	52              	16.2524     	100         	0.4         	0           	Open  	;
 HZ30            	8A              	8B              	88.1927     	100         	0.4         	0           	Open  	;
 HZ31            	50              	8E              	136.4609    	100         	0.4         	0           	Open  	;
 HZ32            	8C              	8D              	116.8812    	125         	0.4         	0           	Open  	;
 HZ33            	8D              	8E              	126.7464    	125         	0.4         	0           	Open  	;
 HZ34            	52              	8D              	33.642      	100         	0.4         	0           	Open  	;
 HZ35            	8A              	8C              	128.3399    	125         	0.4         	0           	Open  	;
 HZ36            	53              	54              	140.8985    	100         	0.4         	0           	Open  	;
 HZ37            	55              	9               	83.9023     	125         	0.4         	0           	Open  	;
 HZ38            	54              	55              	149.6972    	100         	0.4         	0           	Open  	;
 HZ39            	4C              	53              	144.7755    	100         	0.4         	0           	Open  	;
 HZ40            	9A              	9C              	150.281     	100         	0.4         	0           	Open  	;
 HZ41            	9C              	9D              	40.4057     	100         	0.4         	0           	Open  	;
 HZ42            	3A              	HB2-HZ          	12.1649     	125         	0.4         	0           	Open  	;
 HZ43            	9B              	9D              	96.0698     	100         	0.4         	0           	Open  	;
 HZ44            	45              	51              	99.9393     	100         	0.4         	0           	Open  	;
 HZ45            	8E              	10              	201.7755    	125         	0.4         	0           	Open  	;
 HZ46            	6A              	6C              	66.8512     	100         	0.4         	0           	Open  	;
 HZ47            	6C              	7D              	111.0709    	100         	0.4         	0           	Open  	;
 HZ48            	7               	7D              	103.9681    	100         	0.4         	0           	Open  	;
 HZ49            	6C              	6D              	208.5426    	100         	0.4         	0           	Open  	;
 HZ50            	6D              	6               	177.7       	61.2        	0.4         	0           	Open  	;
 HZ51            	40              	40B             	119.2157    	100         	0.4         	0           	Open  	;
 HZ52            	40B             	40C             	97.6909     	100         	0.4         	0           	Open  	;
 HZ53            	40C             	7B              	94.8409     	100         	0.4         	0           	Open  	;
 HZ54            	40B             	5B              	86.3142     	32.6        	0.4         	0           	Open  	;
 HZ55            	40C             	7E              	74.2711     	32.6        	0.4         	0           	Open  	;
 HZ56            	7C              	7D              	68.2424     	100         	0.4         	0           	Open  	;
 HZ57            	7E              	7               	44.1315     	100         	0.4         	0           	Open  	;
 HZ58            	5B              	7C              	106.4725    	100         	0.4         	0           	Open  	;
 HZ59            	7B              	7A              	307.243     	100         	0.4         	0           	Open  	;
 HZ60            	7               	7B              	76.8856     	100         	0.4         	0           	Open  	;
 HZ61            	4C              	4D              	86.8788     	100         	0.4         	0           	Open  	;
 HZ62            	4D              	4A              	98.2581     	80          	0.4         	0           	Open  	;
 HZ63            	8B              	51A             	32.9609     	100         	0.4         	0           	Open  	;
 HZ64            	8C              	51A             	51.3081     	100         	0.4         	0           	Open  	;
 HZ65            	43              	44              	80.8442     	100         	0.4         	0           	Open  	;
 HZ66            	44              	46              	113.4521    	100         	0.4         	0           	Open  	;
 HZ67            	44              	44A             	18.2222     	100         	0.4         	0           	Open  	;
 HZ68            	44A             	40A             	72.651      	100         	0.4         	0           	Open  	;
 HZ69            	44A             	45              	47.43       	100         	0.4         	0           	Open  	;
 HZ70            	8A              	8               	20.6044     	125         	0.4         	0           	Open  	;
 HZ71            	9A              	9               	112.848     	100         	0.4         	0           	Open  	;
 92              	7E              	7C              	33.3794     	100         	0.4         	0           	Open  	;
 93              	R2              	1               	10          	600         	0.4         	0           	CV    	;
 81              	SENSOR_HZ       	6               	10          	600         	0.1         	0           	CV    	;
 82              	SENSOR_NZ       	11              	10          	600         	0.1         	0           	CV    	;
 83              	R1              	2               	1           	10000       	0.0001      	0           	CV    	;

[PUMPS]
;ID              	Node1           	Node2           	Parameters
 P1-1            	1               	GWPWT           	HEAD PC1	SPEED 1	;
 P2-1            	2               	GWPWS           	HEAD PC2	SPEED 1	;
 PUMPE-HB1-1     	HB1-NZ          	4B              	HEAD PC_PUMPE-HB1	SPEED 1	;
 P1-2            	1               	GWPWT           	HEAD PC1	;
 P2-2            	2               	GWPWS           	HEAD PC2	;
 PUMPE-HB1-2     	HB1-NZ          	4B              	HEAD PC_PUMPE-HB1	;

[VALVES]
;ID              	Node1           	Node2           	Diameter    	Type	Setting     	MinorLoss   
 91              	25A             	56              	80          	PRV 	80          	0           	;

[TAGS]
 LINK 	1               	nan*GGG*nan
 LINK 	2               	nan*GGG*nan
 LINK 	3               	nan*GGG*nan
 LINK 	4               	nan*GGG*nan
 LINK 	5               	nan*GGG*nan
 LINK 	6               	nan*GGG*nan
 LINK 	7               	nan*G*nan
 LINK 	8               	nan*G*nan
 LINK 	9               	nan*GGG*nan
 LINK 	10              	nan*G*nan
 LINK 	11              	nan*GGG*nan
 LINK 	12              	nan*GGG*nan
 LINK 	13              	nan*GGG*nan
 LINK 	14              	nan*GGG*nan
 LINK 	15              	nan*GGG*nan
 LINK 	16              	nan*GGG*nan
 LINK 	17              	nan*GGG*nan
 LINK 	18              	nan*GGG*nan
 LINK 	19              	nan*GGG*nan
 LINK 	20              	nan*G*nan
 LINK 	21              	nan*GGG*nan
 LINK 	22              	nan*AZ*nan
 LINK 	23              	nan*AZ*nan
 LINK 	24              	nan*AZ*nan
 LINK 	25              	nan*G*nan
 LINK 	26              	nan*GGG*nan
 LINK 	27              	nan*GGG*nan
 LINK 	28              	nan*GGG*nan
 LINK 	29              	nan*GGG*nan
 LINK 	30              	nan*G*nan
 LINK 	31              	nan*G*nan
 LINK 	32              	nan*G*nan
 LINK 	33              	nan*GGG*nan
 LINK 	34              	nan*GGG*nan
 LINK 	35              	nan*G*nan
 LINK 	36              	nan*PVC*nan
 LINK 	37              	nan*GGG*nan
 LINK 	38              	nan*GGG*nan
 LINK 	39              	nan*GGG*nan
 LINK 	40              	nan*GGG*nan
 LINK 	41              	nan*PVC*nan
 LINK 	42              	nan*GGG*nan
 LINK 	43              	nan*GGG*nan
 LINK 	44              	nan*GGG*nan
 LINK 	45              	nan*GGG*nan
 LINK 	46              	nan*GGG*nan
 LINK 	47              	nan*GGG*nan
 LINK 	48              	nan*GGG*nan
 LINK 	49              	nan*GGG*nan
 LINK 	50              	nan*GGG*nan
 LINK 	51              	nan*GGG*nan
 LINK 	52              	nan*GGG*nan
 LINK 	53              	nan*GGG*nan
 LINK 	54              	nan*GGG*nan
 LINK 	55              	nan*G*nan
 LINK 	56              	nan*GGG*nan
 LINK 	57              	nan*GGG*nan
 LINK 	58              	nan*GGG*nan
 LINK 	59              	nan*GGG*nan
 LINK 	60              	nan*GGG*nan
 LINK 	61              	nan*GGG*nan
 LINK 	62              	nan*PE*nan