[TITLE]


[JUNCTIONS]
;ID              	Elev        	Demand      	Pattern         
 218             	547         	0.09060     	ObererBerg      	;
 269             	575.5       	0.08034     	ObererBerg      	;
 270             	562.4       	0           	ObererBerg      	;
 272             	550         	0.03932     	ObererBerg      	;
 277             	555.5       	0.03419     	ObererBerg      	;
 449             	616.1       	0.00000     	ObererBerg      	;
 491             	608         	0.00000     	ObererBerg      	;
 504             	564         	0           	ObererBerg      	;
 519             	591.4       	0.15385     	ObererBerg      	;
 521             	591.2       	0.05641     	ObererBerg      	;
 537             	559         	0.13162     	ObererBerg      	;
 515A            	737         	0.00000     	ObererBerg      	;
 516A            	640.7       	0.00000     	ObererBerg      	;
 517A            	631.7       	0.00000     	ObererBerg      	;
 518A            	649.6       	0.03761     	ObererBerg      	;
 520A            	581.4       	0.00000     	ObererBerg      	;
 EICHB_SCHW2     	575         	0.37607     	ObererBerg      	;
 EICHB_SCHW      	575         	0.00000     	ObererBerg      	;
 HY10            	538         	0           	ObererBerg      	;
 177             	484.19      	0.01864     	UntererBerg     	;
 177A            	492.5       	0.02175     	UntererBerg     	;
 178             	497.87      	0.02175     	UntererBerg     	;
 180             	519.72      	0.03418     	UntererBerg     	;
 181             	532         	0.00621     	UntererBerg     	;
 182             	522.5       	0.02796     	UntererBerg     	;
 183             	514         	0.01864     	UntererBerg     	;
 216             	510         	0.03418     	UntererBerg     	;
 217             	500         	0.00000     	UntererBerg     	;
 219             	537.1       	0.06525     	UntererBerg     	;
 220             	533         	0.00000     	UntererBerg     	;
 220A            	526         	0.00000     	UntererBerg     	;
 222             	526.1       	0.01197     	UntererBerg     	;
 223             	527.5       	0.07768     	UntererBerg     	;
 224             	516.6       	0.06214     	UntererBerg     	;
 225             	514         	0.01553     	UntererBerg     	;
 226             	522.9       	0.03728     	UntererBerg     	;
 228             	520.3       	0.00000     	UntererBerg     	;
 229             	519.5       	0.00000     	UntererBerg     	;
 230             	520.5       	0.03107     	UntererBerg     	;
 231             	527         	0.04661     	UntererBerg     	;
 232             	528.84      	0.00932     	UntererBerg     	;
 263             	524         	0.04039     	UntererBerg     	;
 264             	527.6       	0.01864     	UntererBerg     	;
 266             	526.6       	0.03418     	UntererBerg     	;
 265             	527.5       	0.02175     	UntererBerg     	;
 267             	532.1       	0.08389     	UntererBerg     	;
 268             	527.1       	0.04039     	UntererBerg     	;
 495             	554.3       	0.00000     	UntererBerg     	;
 502             	491.3       	0.00621     	UntererBerg     	;
 503             	513         	0.01243     	UntererBerg     	;
 509             	528.1       	0.06214     	UntererBerg     	;
 523             	513.4       	0.03418     	UntererBerg     	;
 525             	491         	0.00000     	UntererBerg     	;
 524             	513.8       	0.03107     	UntererBerg     	;
 526             	523.81      	0.04971     	UntererBerg     	;
 527             	527.18      	0.00000     	UntererBerg     	;
 528             	528.8       	0.02486     	UntererBerg     	;
 536             	557.6       	0.00000     	UntererBerg     	;
 71              	440         	0.03247     	Markt           	;
 72              	437.1       	0.01706     	Markt           	;
 74              	437.5       	0.00550     	Markt           	;
 75              	437.5       	0.00550     	Markt           	;
 78              	438.5       	0.01156     	Markt           	;
 80              	439         	0.00550     	Markt           	;
 81              	451         	0.00550     	Markt           	;
 82              	466.5       	0.00605     	Markt           	;
 83              	450.5       	0.00605     	Markt           	;
 84              	444         	0.00605     	Markt           	;
 86              	457         	0.00605     	Markt           	;
 87              	451.5       	0.01156     	Markt           	;
 88              	453         	0.01156     	Markt           	;
 89              	453.5       	0.01156     	Markt           	;
 90              	455.5       	0.11007     	Markt           	;
 91              	450         	0.01156     	Markt           	;
 93              	458         	0.00715     	Markt           	;
 95              	476         	0.00550     	Markt           	;
 96              	472         	0.01046     	Markt           	;
 97              	468         	0.00550     	Markt           	;
 98              	462         	0.00550     	Markt           	;
 99              	458         	0.00550     	Markt           	;
 100             	462         	0.01046     	Markt           	;
 102             	459         	0.00550     	Markt           	;
 103             	457         	0.00495     	Markt           	;
 104             	455.5       	0.00495     	Markt           	;
 105             	455         	0.04293     	Markt           	;
 106             	452.5       	0.04843     	Markt           	;
 107             	450.5       	0.01431     	Markt           	;
 108             	455.5       	0.01541     	Markt           	;
 109             	459.5       	0.00550     	Markt           	;
 110             	443.5       	0.00605     	Markt           	;
 111             	443         	0.00605     	Markt           	;
 112             	442         	0.01596     	Markt           	;
 113             	446         	0.09081     	Markt           	;
 114             	442         	0.05228     	Markt           	;
 162             	446.5       	0.07815     	Markt           	;
 164             	447.5       	0.03908     	Markt           	;
 167             	447         	0.01706     	Markt           	;
 169             	449.5       	0.02807     	Markt           	;
 171             	450.5       	0.02201     	Markt           	;
 172             	452         	0.05559     	Markt           	;
 189             	443.5       	0.00000     	Markt           	;
 190             	442.5       	0.00000     	Markt           	;
 213             	443.2       	0.00000     	Markt           	;
 457             	500         	0           	Markt           	;
 458             	483.5       	0.02256     	Markt           	;
 460             	479         	0.00000     	Markt           	;
 465             	465         	0.00550     	Markt           	;
 483             	448.5       	0.00000     	Markt           	;
 490             	474         	0.00000     	Markt           	;
 514             	459.5       	0.00165     	Markt           	;
 520             	463         	0.00605     	Markt           	;
 114A            	440         	0.02697     	Unterzone       	;
 190A            	440         	0.00000     	Markt           	;
 457A            	497.1       	0.00220     	Markt           	;
 90A             	455.5       	0.00000     	Markt           	;
 90B             	453         	0.00000     	Markt           	;
 HY96            	441.5       	0.00000     	Markt           	;
 HY96A           	440.8       	0.00000     	Markt           	;
 HY96B           	443.1       	0.06824     	Markt           	;
 2               	422.5       	0.00060     	Unterzone       	;
 3               	423         	0.00185     	Unterzone       	;
 4               	424         	0.00179     	Unterzone       	;
 5               	425         	0.00030     	Unterzone       	;
 6               	424.5       	0.00030     	Unterzone       	;
 7               	425.5       	0.00090     	Unterzone       	;
 8               	426.5       	0.00078     	Unterzone       	;
 9               	427         	0.00078     	Unterzone       	;
 10              	426         	0.00311     	Unterzone       	;
 11              	426.5       	0.00311     	Unterzone       	;
 12              	428         	0.00299     	Unterzone       	;
 13              	426         	0.00598     	Unterzone       	;
 14              	425.5       	0.00215     	Unterzone       	;
 15              	424.5       	0.00251     	Unterzone       	;
 16              	425         	0.00299     	Unterzone       	;
 17              	428         	0.00078     	Unterzone       	;
 18              	428.5       	0.00078     	Unterzone       	;
 19              	429         	0.00078     	Unterzone       	;
 21              	430         	0.00114     	Unterzone       	;
 23              	429         	0.00239     	Unterzone       	;
 24              	430         	0.00317     	Unterzone       	;
 25              	430         	0.00257     	Unterzone       	;
 26              	429.5       	0.00299     	Unterzone       	;
 33              	434         	0.02512     	Unterzone       	;
 34              	436         	0.00467     	Unterzone       	;
 35              	427.5       	0.00365     	Unterzone       	;
 36              	427         	0.00060     	Unterzone       	;
 37              	426.5       	0.00299     	Unterzone       	;
 38              	425.5       	0.00299     	Unterzone       	;
 39              	424.5       	0.00371     	Unterzone       	;
 40              	427         	0.00102     	Unterzone       	;
 41              	424.5       	0.00598     	Unterzone       	;
 42              	423         	0.00837     	Unterzone       	;
 43              	424.5       	0.00969     	Unterzone       	;
 44              	423.5       	0.01113     	Unterzone       	;
 45              	422.5       	0.00478     	Unterzone       	;
 46              	423.5       	0.00299     	Unterzone       	;
 47              	423         	0.00084     	Unterzone       	;
 48              	423         	0.00359     	Unterzone       	;
 49              	422.5       	0.00598     	Unterzone       	;
 52              	426.5       	0.01741     	Unterzone       	;
 53              	427         	0.00299     	Unterzone       	;
 54              	427         	0.00120     	Unterzone       	;
 58              	427         	0.00359     	Unterzone       	;
 60              	427         	0.00299     	Unterzone       	;
 62              	423         	0.00359     	Unterzone       	;
 63              	428         	0.00574     	Unterzone       	;
 64              	432         	0.00598     	Unterzone       	;
 65              	432.5       	0.00299     	Unterzone       	;
 66              	426.5       	0.00281     	Unterzone       	;
 67              	432.5       	0.00299     	Unterzone       	;
 68              	434         	0.00150     	Unterzone       	;
 69              	434.5       	0.00227     	Unterzone       	;
 73              	436.9       	0           	Markt           	;
 77              	435         	0.00574     	Unterzone       	;
 79              	435.1       	0.00431     	Markt           	;
 115             	438         	0.00120     	Unterzone       	;
 116             	437.5       	0.00239     	Unterzone       	;
 118             	436.5       	0.00120     	Unterzone       	;
 119             	436.5       	0.00598     	Unterzone       	;
 120             	437.5       	0.00502     	Unterzone       	;
 122             	434         	0.00598     	Unterzone       	;
 123             	432         	0.00299     	Unterzone       	;
 125             	431         	0.01370     	Unterzone       	;
 126             	429.5       	0.00126     	Unterzone       	;
 127             	429.5       	0.00239     	Unterzone       	;
 128             	428.5       	0.00305     	Unterzone       	;
 129             	428         	0.00299     	Unterzone       	;
 130             	426.5       	0.00257     	Unterzone       	;
 131             	427.5       	0.00658     	Unterzone       	;
 133             	427.5       	0.00179     	Unterzone       	;
 134             	427.5       	0.00197     	Unterzone       	;
 135             	427.5       	0.00239     	Unterzone       	;
 136             	423.5       	0.00239     	Unterzone       	;
 137             	423.5       	0.01124     	Unterzone       	;
 138             	425         	0.00299     	Unterzone       	;
 139             	422         	0.00060     	Unterzone       	;
 140             	422.36      	0.00299     	Unterzone       	;
 145             	422.5       	0.00144     	Unterzone       	;
 146             	422.5       	0.00060     	Unterzone       	;
 147             	425         	0.00114     	Unterzone       	;
 149             	430.5       	0.00245     	Unterzone       	;
 150             	430         	0.00245     	Unterzone       	;
 151             	428         	0.00455     	Unterzone       	;
 152             	426.5       	0.00550     	Unterzone       	;
 153             	426.5       	0.00425     	Unterzone       	;
 154             	433         	0.00772     	Unterzone       	;
 155             	433         	0.01101     	Unterzone       	;
 156             	436         	0.00478     	Unterzone       	;
 157             	437         	0.00508     	Unterzone       	;
 159             	437.5       	0.00215     	Unterzone       	;
 161             	437         	0.00778     	Unterzone       	;
 163             	447.5       	0.00478     	Unterzone       	;
 184             	444         	0.00299     	Unterzone       	;
 186             	443.5       	0.00455     	Unterzone       	;
 188             	450         	0.00825     	Unterzone       	;
 192             	439         	0.00634     	Unterzone       	;
 194             	439         	0.00347     	Unterzone       	;
 195             	435         	0.01208     	Unterzone       	;
 196             	434         	0.01262     	Unterzone       	;
 197             	437.5       	0.00449     	Unterzone       	;
 198             	430.5       	0.00299     	Unterzone       	;
 199             	429         	0.00419     	Unterzone       	;
 200             	431         	0.01352     	Unterzone       	;
 201             	427         	0.00126     	Unterzone       	;
 202             	426         	0.00179     	Unterzone       	;
 206             	419.5       	0.00239     	Unterzone       	;
 207             	419.5       	0.00126     	Unterzone       	;
 211             	419         	0.01507     	Unterzone       	;
 234             	417.5       	0.01531     	Unterzone       	;
 235             	419.5       	0.00090     	Unterzone       	;
 236             	419.5       	0.00060     	Unterzone       	;
 237             	420         	0.00120     	Unterzone       	;
 238             	420         	0.00060     	Unterzone       	;
 239             	422.5       	0.00179     	Unterzone       	;
 240             	422         	0.00299     	Unterzone       	;
 241             	424         	0.00305     	Unterzone       	;
 242             	425.5       	0.00299     	Unterzone       	;
 243             	426         	0.00066     	Unterzone       	;
 244             	427         	0.00042     	Unterzone       	;
 245             	427         	0.00478     	Unterzone       	;
 246             	427         	0.00652     	Unterzone       	;
 247             	430         	0.01382     	Unterzone       	;
 248             	428         	0.00347     	Unterzone       	;
 249             	430         	0.00185     	Unterzone       	;
 250             	430         	0.00179     	Unterzone       	;
 252             	431.5       	0.00395     	Unterzone       	;
 253             	435         	0.00120     	Unterzone       	;
 254             	437         	0.00150     	Unterzone       	;
 256             	437         	0.00239     	Unterzone       	;
 259             	437         	0.00514     	Unterzone       	;
 260             	441         	0.00395     	Unterzone       	;
 261             	442         	0.00478     	Unterzone       	;
 262             	438         	0.00299     	Unterzone       	;
 281             	434.5       	0.00150     	Unterzone       	;
 282             	433         	0.00179     	Unterzone       	;
 285             	434         	0.00239     	Unterzone       	;
 289             	435         	0.01029     	Unterzone       	;
 290             	428         	0.00419     	Unterzone       	;
 291             	428         	0.00120     	Unterzone       	;
 292             	428         	0.00060     	Unterzone       	;
 293             	428         	0.00610     	Unterzone       	;
 294             	428         	0.00060     	Unterzone       	;
 295             	424         	0.00419     	Unterzone       	;
 297             	422.5       	0.00239     	Unterzone       	;
 299             	422         	0.00179     	Unterzone       	;
 301             	420         	0.00030     	Unterzone       	;
 302             	420         	0.00060     	Unterzone       	;
 303             	420         	0.00179     	Unterzone       	;
 304             	417.5       	0.00742     	Unterzone       	;
 308             	414         	0.00299     	Unterzone       	;
 309             	416         	0.00090     	Unterzone       	;
 311             	416         	0.00102     	Unterzone       	;
 313             	416         	0.00060     	Unterzone       	;
 314             	415         	0.00096     	Unterzone       	;
 315             	414         	0.00060     	Unterzone       	;
 318             	418.5       	0.00072     	Unterzone       	;
 319             	418         	0.00239     	Unterzone       	;
 320             	419.5       	0.00096     	Unterzone       	;
 321             	419.5       	0.00114     	Unterzone       	;
 322             	419         	0.00030     	Unterzone       	;
 323             	415.5       	0.00096     	Unterzone       	;
 324             	420         	0.00179     	Unterzone       	;
 325             	421.5       	0.00359     	Unterzone       	;
 327             	422         	0.00299     	Unterzone       	;
 328             	423.5       	0.00335     	Unterzone       	;
 329             	422.5       	0.00359     	Unterzone       	;
 330             	421         	0.00365     	Unterzone       	;
 331             	424         	0.00060     	Unterzone       	;
 333             	424         	0.00341     	Unterzone       	;
 335             	424         	0.00060     	Unterzone       	;
 337             	421.5       	0.00778     	Unterzone       	;
 338             	426         	0.00419     	Unterzone       	;
 340             	427.5       	0.01316     	Unterzone       	;
 341             	424         	0.00239     	Unterzone       	;
 343             	429.5       	0.00173     	Unterzone       	;
 344             	429.5       	0.00120     	Unterzone       	;
 345             	432         	0.00179     	Unterzone       	;
 346             	432         	0.00215     	Unterzone       	;
 348             	431.5       	0.00179     	Unterzone       	;
 349             	430.5       	0.00179     	Unterzone       	;
 352             	432.5       	0.00072     	Unterzone       	;
 353             	427.5       	0.00598     	Unterzone       	;
 354             	429.5       	0.00179     	Unterzone       	;
 355             	431         	0.00179     	Unterzone       	;
 358             	431.5       	0.00718     	Unterzone       	;
 360             	432         	0.00299     	Unterzone       	;
 361             	431.5       	0.01675     	Unterzone       	;
 364             	433         	0.00275     	Unterzone       	;
 365             	430.5       	0.00921     	Unterzone       	;
 367             	427         	0.00245     	Unterzone       	;
 368             	425.5       	0.00419     	Unterzone       	;
 369             	424         	0.00365     	Unterzone       	;
 370             	424         	0.00000     	Unterzone       	;
 371             	419         	0.00179     	Unterzone       	;
 372             	419.5       	0.00353     	Unterzone       	;
 373             	420         	0.00658     	Unterzone       	;
 375             	420         	0.00161     	Unterzone       	;
 376             	420.5       	0.00299     	Unterzone       	;
 377             	422         	0.00239     	Unterzone       	;
 378             	422.5       	0.00245     	Unterzone       	;
 379             	420.5       	0.00299     	Unterzone       	;
 380             	419         	0.00299     	Unterzone       	;
 381             	420         	0.00179     	Unterzone       	;
 382             	412.5       	0.00000     	Unterzone       	;
 383             	413.5       	0.00150     	Unterzone       	;
 385             	425         	0.00778     	Unterzone       	;
 386             	422.5       	0.00275     	Unterzone       	;
 387             	429         	0.00484     	Unterzone       	;
 389             	413.5       	0.00179     	Unterzone       	;
 390             	413.3       	0.00179     	Unterzone       	;
 391             	414.2       	0.00239     	Unterzone       	;
 392             	413.7       	0.00239     	Unterzone       	;
 394             	413.8       	0.00496     	Unterzone       	;
 395             	413.85      	0.00299     	Unterzone       	;
 396             	413.8       	0.00299     	Unterzone       	;
 397             	413         	0.00335     	Unterzone       	;
 399             	412         	0.00825     	Unterzone       	;
 400             	415         	0.00179     	Unterzone       	;
 401             	415         	0.00120     	Unterzone       	;
 403             	414         	0.00203     	Unterzone       	;
 404             	414.5       	0.00090     	Unterzone       	;
 405             	414         	0.00060     	Unterzone       	;
 406             	414         	0.00060     	Unterzone       	;
 407             	418         	0.00090     	Unterzone       	;
 408             	416.7       	0.00060     	Unterzone       	;
 409             	416.5       	0.00060     	Unterzone       	;
 410             	418.9       	0.00179     	Unterzone       	;
 411             	414.6       	0.00179     	Unterzone       	;
 412             	413.5       	0.00120     	Unterzone       	;
 413             	412.5       	0.00090     	Unterzone       	;
 417             	419         	0.00891     	Unterzone       	;
 418             	415.5       	0.01065     	Unterzone       	;
 422             	416         	0.00664     	Unterzone       	;
 423             	416         	0.00461     	Unterzone       	;
 425             	415.5       	0.00299     	Unterzone       	;
 426             	416         	0.00897     	Unterzone       	;
 427             	415.5       	0.00526     	Unterzone       	;
 428             	418         	0.00526     	Unterzone       	;
 429             	416         	0.00455     	Unterzone       	;
 430             	417.5       	0.00449     	Unterzone       	;
 431             	417         	0.00102     	Unterzone       	;
 434             	412.95      	0.00060     	Unterzone       	;
 436             	412.9       	0.00455     	Unterzone       	;
 437             	413         	0.00138     	Unterzone       	;
 438             	413         	0.00419     	Unterzone       	;
 439             	412.5       	0.00359     	Unterzone       	;
 440             	412.5       	0.00634     	Unterzone       	;
 441             	412.5       	0.00478     	Unterzone       	;
 442             	412.5       	0.00060     	Unterzone       	;
 446             	419         	0.02093     	Unterzone       	;
 447             	411.5       	0.00598     	Unterzone       	;
 455             	413.8       	0.00000     	Unterzone       	;
 467             	440         	0.00245     	Unterzone       	;
 468             	430         	0.00185     	Unterzone       	;
 470             	427         	0.00060     	Unterzone       	;
 471             	411.5       	0.00060     	Unterzone       	;
 473             	421         	0.00185     	Unterzone       	;
 474             	425         	0.00299     	Unterzone       	;
 476             	421.4       	0.00179     	Unterzone       	;
 477             	415.5       	0.00060     	Unterzone       	;
 478             	413.5       	0.00299     	Unterzone       	;
 478A            	414.25      	0.00000     	Unterzone       	;
 480             	429.5       	0.00299     	Unterzone       	;
 481             	437.6       	0.00000     	Unterzone       	;
 497             	413.7       	0.00299     	Unterzone       	;
 498             	413.7       	0.00353     	Unterzone       	;
 499             	414.2       	0.00179     	Unterzone       	;
 501             	422         	0.00173     	Unterzone       	;
 510             	424         	0.00179     	Unterzone       	;
 511             	436         	0.00275     	Unterzone       	;
 513             	412         	0.00772     	Unterzone       	;
 515             	446         	0.00897     	Unterzone       	;
 516             	415.5       	0.00030     	Unterzone       	;
 531             	412         	0.00754     	Unterzone       	;
 532             	413         	0.00000     	Unterzone       	;
 533             	413         	0.00000     	Unterzone       	;
 534             	413         	0.00000     	Unterzone       	;
 535             	413.7       	0.00179     	Unterzone       	;
 538             	422.84      	0.00000     	Unterzone       	;
 539             	423.1       	0.00000     	Unterzone       	;
 540             	423.28      	0.00000     	Unterzone       	;
 541             	423.31      	0.00000     	Unterzone       	;
 542             	423.64      	0.00000     	Unterzone       	;
 543             	423.82      	0.00000     	Unterzone       	;
 544             	423.91      	0.00000     	Unterzone       	;
 119A            	433         	0.00000     	Unterzone       	;
 139A            	420.97      	0.00000     	Unterzone       	;
 150A            	432         	0.00000     	Unterzone       	;
 150B            	432         	0.00000     	Unterzone       	;
 157A            	436.5       	0.00000     	Unterzone       	;
 157B            	437         	0.00000     	Unterzone       	;
 240A            	422         	0.00000     	Unterzone       	;
 240B            	422.35      	0.00000     	Unterzone       	;
 289A            	430         	0.00000     	Unterzone       	;
 387A            	430         	0.00000     	Unterzone       	;
 45A             	422.6       	0.00000     	Unterzone       	;
 RTWV            	411         	0.00000     	Unterzone       	;
 HY346           	422.5       	0.00000     	Unterzone       	;
 ÜbergabeKoblach 	422.5       	0.00000     	Unterzone       	;
 HYNeu           	414         	0.00000     	Unterzone       	;
 459             	470         	0.00000     	Markt           	;
 DUM4            	737         	0.00000     	ObererBerg      	;
 22              	1130        	0.00000     	ObererBerg      	;
 DUM9            	1130        	0.00000     	ObererBerg      	;
 523A            	513.4       	0.00000     	UntererBerg     	;
 508             	495         	0.00000     	UntererBerg     	;
 463             	495         	0.00000     	UntererBerg     	;
 214             	495         	0.00000     	UntererBerg     	;
 DUM1            	500         	0.00000     	UntererBerg     	;
 101             	462         	0.00000     	Markt           	;
 514A            	459.5       	0           	Markt           	;
 490A            	474         	0.00000     	Unterzone       	;
 414             	412         	0.00000     	Unterzone       	;
 432             	412         	0.00000     	Unterzone       	;
 DUM10           	411         	0.00000     	Unterzone       	;
 51              	575         	0.00000     	ObererBerg      	;
 55              	495         	0.00000     	UntererBerg     	;
 160             	437         	0.00000     	Unterzone       	;
 158             	437         	0.00000     	Unterzone       	;
 493             	562.4       	0           	ObererBerg      	;
 271             	564         	0.00431     	ObererBerg      	;
 221             	526.1       	0.00215     	UntererBerg     	;
 227             	519.5       	0.00000     	Unterzone       	;
 DUM5            	737         	0           	ObererBerg      	;
 DUM6            	737         	0           	ObererBerg      	;
 DUM3            	500         	0           	UntererBerg     	;
 DUM2            	500         	0           	Unterzone       	;
 DUM8            	1130        	0           	ObererBerg      	;
 DUM7            	1130        	0           	ObererBerg      	;
 DUM11           	411         	0           	Unterzone       	;
 DUM12           	411         	0           	Unterzone       	;
 1               	414         	0           	                	;
 20              	413.8       	10          	                	;

[RESERVOIRS]
;ID              	Head        	Pattern         
 Stiegquellen    	737         	                	;
 GötznerMoos     	1130        	                	;
 Örflaquellen    	500         	                	;
 30              	414         	                	;
 31              	486         	                	;
 Kommingen       	485         	                	;

[TANKS]
;ID              	Elevation   	InitLevel   	MinLevel    	MaxLevel    	Diameter    	MinVol      	VolCurve
 HBObererBerg    	677.6       	2           	0           	2           	5.64        	0           	                	;
 Schlatt         	1103        	2           	0           	2           	3.09        	0           	                	;
 DUSI            	1110        	2           	0           	2           	3.09        	0           	                	;