[TITLE]


[JUNCTIONS]
;ID              	Elev        	Demand      	Pattern         
 14              	703.081     	0.00146     	Hall            	;
 19              	696.018     	0.00195     	Hall            	;
 33              	691.157     	0.171       	Hall            	;
 63              	692.023     	0.00105     	Hall            	;
 75              	685.793     	0.00117     	Hall            	;
 91              	682.832     	0.00196     	Hall            	;
 95              	687.239     	0.00146     	Hall            	;
 128             	687.320     	0.00093     	Hall            	;
 144             	677.656     	0.00191     	Hall            	;
 178             	679.735     	0.00063     	Hall            	;
 184             	748.607     	0.00000     	Hall            	;
 185             	734.144     	0.00000     	Hall            	;
 191             	736.813     	0.00000     	Hall            	;
 196             	740.409     	0.00000     	Hall            	;
 206             	697.662     	0.00000     	Hall            	;
 230             	691.590     	0.00000     	Hall            	;
 239             	677.724     	0.00000     	Hall            	;
 240             	687.037     	0.00000     	Hall            	;
 248             	627.522     	0.00000     	Hall            	;
 279             	617.863     	0.00000     	Hall            	;
 292             	617.947     	0.00002     	Hall            	;
 314             	613.290     	0.00000     	Hall            	;
 315             	600.050     	0.00000     	Hall            	;
 316             	609.603     	0.00000     	Hall            	;
 373             	681.409     	0.00071     	Hall            	;
 381             	681.418     	0.00099     	Hall            	;
 383             	683.736     	0.00049     	Hall            	;
 403             	675.816     	0.00118     	Hall            	;
 414             	673.604     	0.00058     	Hall            	;
 426             	673.949     	0.00093     	Hall            	;
 429             	668.453     	0.00076     	Hall            	;
 439             	667.677     	0.00021     	Hall            	;
 445             	667.460     	0.00003     	Hall            	;
 447             	667.459     	0.00004     	Hall            	;
 448             	667.108     	0.00091     	Hall            	;
 452             	668.087     	0.00054     	Hall            	;
 462             	668.125     	0.00001     	Hall            	;
 464             	668.527     	0.00224     	Hall            	;
 508             	660.763     	0.00115     	Hall            	;
 533             	661.541     	0.00087     	Hall            	;
 540             	661.506     	0.00001     	Hall            	;
 541             	660.371     	0.00299     	Hall            	;
 556             	664.376     	0.00124     	Hall            	;
 573             	664.537     	0.00030     	Hall            	;
 594             	672.047     	0.00039     	Hall            	;
 598             	658.417     	0.00051     	Hall            	;
 617             	641.079     	0.00000     	Hall            	;
 673             	648.399     	0.00000     	Hall            	;
 674             	648.284     	0.00000     	Hall            	;
 703             	599.617     	0.00000     	Hall            	;
 704             	599.771     	0.00003     	Hall            	;
 705             	599.861     	0.00002     	Hall            	;
 706             	599.808     	0.00000     	Hall            	;
 707             	605.566     	0.00000     	Hall            	;
 739             	604.193     	0.00000     	Hall            	;
 755             	595.688     	0.00161     	Hall            	;
 756             	595.576     	0.00020     	Hall            	;
 764             	597.276     	0.00057     	Hall            	;
 768             	602.206     	0.00113     	Hall            	;
 778             	602.265     	0.00002     	Hall            	;
 780             	602.834     	0.00072     	Hall            	;
 793             	601.850     	0.00040     	Hall            	;
 794             	601.844     	0.00002     	Hall            	;
 795             	598.412     	0.00074     	Hall            	;
 801             	598.383     	0.00001     	Hall            	;
 802             	593.817     	0.00060     	Hall            	;
 813             	594.574     	0.00064     	Hall            	;
 820             	596.238     	0.00055     	Hall            	;
 829             	596.670     	0.00005     	Hall            	;
 844             	587.281     	0.00100     	Hall            	;
 870             	587.261     	0.00001     	Hall            	;
 871             	587.329     	0.00089     	Hall            	;
 876             	582.777     	0.00112     	Hall            	;
 892             	582.691     	0.00001     	Hall            	;
 893             	570.412     	0.00117     	Hall            	;
 922             	568.624     	0.00067     	Hall            	;
 953             	568.533     	0.00003     	Hall            	;
 954             	568.411     	0.00068     	Hall            	;
 960             	568.457     	0.00001     	Hall            	;
 961             	570.514     	0.00180     	Hall            	;
 979             	570.505     	0.00001     	Hall            	;
 980             	562.500     	0.00152     	Hall            	;
 1043            	562.614     	0.00001     	Hall            	;
 1044            	557.903     	0.00081     	Hall            	;
 1062            	556.877     	0.00078     	Hall            	;
 1093            	556.874     	0.00122     	Hall            	;
 1111            	556.863     	0.00001     	Hall            	;
 1112            	556.983     	0.00902     	Hall            	;
 1143            	556.977     	0.00001     	Hall            	;
 1144            	557.540     	1.000       	GV              	;
 1163            	556.880     	0.00260     	Hall            	;
 1226            	557.880     	0.00076     	Hall            	;
 1248            	557.911     	0.00001     	Hall            	;
 1250            	557.387     	0.00106     	Hall            	;
 1270            	558.142     	0.00111     	Hall            	;
 1304            	559.501     	0.00057     	Hall            	;
 1343            	559.586     	0.00045     	Hall            	;
 1356            	559.760     	0.00069     	Hall            	;
 1371            	559.973     	0.00057     	Hall            	;
 1394            	560.174     	0.00035     	Hall            	;
 1403            	559.673     	0.00044     	Hall            	;
 1417            	559.439     	0.00066     	Hall            	;
 1432            	559.438     	0.00000     	Hall            	;
 1434            	559.026     	0.00099     	Hall            	;
 1465            	559.020     	0.00043     	Hall            	;
 1467            	559.021     	0.00000     	Hall            	;
 1468            	560.018     	0.00064     	Hall            	;
 1498            	560.085     	0.00002     	Hall            	;
 1500            	561.233     	0.00081     	Hall            	;
 1516            	561.025     	0.00143     	Hall            	;
 1547            	570.288     	0.00167     	Hall            	;
 1586            	573.098     	0.00080     	Hall            	;
 1593            	573.088     	0.00000     	Hall            	;
 1594            	580.099     	0.00172     	Hall            	;
 1651            	580.134     	0.00182     	Hall            	;
 1652            	580.114     	0.00000     	Hall            	;
 1653            	590.603     	0.00205     	Hall            	;
 1764            	592.755     	0.00136     	Hall            	;
 1811            	591.653     	0.00038     	Hall            	;
 1821            	591.952     	0.00000     	Hall            	;
 1842            	592.725     	0.00080     	Hall            	;
 1956            	595.769     	0.00085     	Hall            	;
 2052            	595.798     	0.00023     	Hall            	;
 2053            	595.210     	0.00083     	Hall            	;
 2079            	593.339     	0.00124     	Hall            	;
 2136            	589.858     	0.00062     	Hall            	;
 2168            	590.148     	0.00024     	Hall            	;
 2173            	591.801     	0.00018     	Hall            	;
 2203            	592.126     	0.00051     	Hall            	;
 2209            	592.849     	0.00068     	Hall            	;
 2228            	592.765     	0.00041     	Hall            	;
 2231            	592.488     	0.00121     	Hall            	;
 2262            	593.487     	0.00052     	Hall            	;
 2293            	597.369     	0.00072     	Hall            	;
 2308            	597.560     	0.00004     	Hall            	;
 2311            	597.636     	0.00032     	Hall            	;
 2313            	597.401     	0.00005     	Hall            	;
 2319            	597.729     	0.00064     	Hall            	;
 2333            	598.288     	0.00069     	Hall            	;
 2360            	597.392     	0.00080     	Hall            	;
 2388            	596.833     	0.00089     	Hall            	;
 2417            	602.491     	0.00054     	Hall            	;
 2461            	602.036     	0.00123     	Hall            	;
 2472            	610.996     	0.00114     	Hall            	;
 2528            	592.400     	0.00002     	Hall            	;
 2531            	597.201     	0.00014     	Hall            	;
 2532            	597.190     	0.00000     	Hall            	;
 2533            	596.668     	0.00043     	Hall            	;
 2552            	594.663     	0.00034     	Hall            	;
 2577            	594.654     	0.00041     	Hall            	;
 2590            	596.355     	0.00034     	Hall            	;
 2626            	594.882     	0.00008     	Hall            	;
 2633            	593.482     	0.00027     	Hall            	;
 2639            	593.572     	0.00040     	Hall            	;
 2653            	596.677     	0.00045     	Hall            	;
 2662            	594.440     	0.00040     	Hall            	;
 2686            	594.054     	0.00026     	Hall            	;
 2688            	594.050     	0.00051     	Hall            	;
 2717            	591.500     	0.00041     	Hall            	;
 2727            	589.655     	0.00032     	Hall            	;
 2759            	592.599     	0.00057     	Hall            	;
 2766            	590.652     	0.00070     	Hall            	;
 2772            	586.956     	0.00040     	Hall            	;
 2801            	586.925     	0.00001     	Hall            	;
 2806            	586.519     	0.00070     	Hall            	;
 2828            	592.121     	0.00039     	Hall            	;
 2863            	589.544     	0.00038     	Hall            	;
 2909            	594.426     	0.00011     	Hall            	;
 2918            	585.964     	0.00074     	Hall            	;
 2977            	585.302     	0.00068     	Hall            	;
 2978            	587.312     	0.00087     	Hall            	;
 3028            	586.182     	0.00019     	Hall            	;
 3032            	585.573     	0.00047     	Hall            	;
 3039            	586.056     	0.00059     	Hall            	;
 3050            	584.514     	0.00047     	Hall            	;
 3075            	583.224     	0.00023     	Hall            	;
 3089            	583.287     	0.00003     	Hall            	;
 3090            	584.226     	0.00011     	Hall            	;
 3101            	584.400     	0.00002     	Hall            	;
 3103            	583.943     	0.00005     	Hall            	;
 3115            	583.996     	0.00013     	Hall            	;
 3119            	586.302     	0.00003     	Hall            	;
 3127            	585.156     	0.00105     	Hall            	;
 3137            	581.404     	0.01100     	Hall            	;
 3146            	578.462     	0.00087     	Hall            	;
 3153            	574.812     	0.00194     	Hall            	;
 3169            	561.676     	0.00031     	Hall            	;
 3181            	561.531     	0.00124     	Hall            	;
 3192            	569.343     	0.00758     	Hall            	;
 3232            	568.848     	0.00002     	Hall            	;
 3233            	557.102     	0.00758     	Hall            	;
 3247            	559.334     	0.00045     	Hall            	;
 3253            	557.028     	0.00011     	Hall            	;
 3259            	561.487     	0.00023     	Hall            	;
 3273            	561.259     	0.00000     	Hall            	;
 3275            	562.536     	0.00038     	Hall            	;
 3282            	566.704     	0.00061     	Hall            	;
 3317            	559.814     	0.00086     	Hall            	;
 3367            	565.846     	0.00005     	Hall            	;
 3371            	570.234     	0.00000     	Hall            	;
 3378            	556.930     	0.00058     	Hall            	;
 3384            	562.413     	0.00106     	Hall            	;
 3447            	572.249     	0.00063     	Hall            	;
 3458            	572.249     	0.00067     	Hall            	;
 3459            	557.768     	1.770       	GV              	;
 3474            	578.751     	0.00083     	Hall            	;
 3498            	579.616     	0.00100     	Hall            	;
 3513            	580.061     	3.500       	GV              	;
 3564            	582.123     	0.00145     	Hall            	;
 3596            	583.146     	0.00087     	Hall            	;
 3634            	588.928     	0.00027     	Hall            	;
 3641            	588.918     	0.00001     	Hall            	;
 3642            	588.135     	0.00004     	Hall            	;
 3645            	591.497     	0.00002     	Hall            	;
 3650            	588.699     	0.00056     	Hall            	;
 3655            	584.593     	0.00056     	Hall            	;
 3671            	583.262     	0.00077     	Hall            	;
 3795            	579.965     	0.00058     	Hall            	;
 3810            	579.453     	0.00031     	Hall            	;
 3825            	579.438     	0.00037     	Hall            	;
 3827            	579.912     	0.00038     	Hall            	;
 3837            	580.104     	0.00003     	Hall            	;
 3843            	578.758     	0.00023     	Hall            	;
 3873            	595.812     	0.00003     	Hall            	;
 3879            	596.195     	0.00327     	Hall            	;
 3949            	594.481     	0.00124     	Hall            	;
 3950            	598.102     	0.00043     	Hall            	;
 3967            	597.973     	0.00001     	Hall            	;
 3968            	598.234     	0.00005     	Hall            	;
 3974            	593.417     	0.00041     	Hall            	;
 4032            	580.931     	0.00135     	Hall            	;
 4105            	589.707     	0.00068     	Hall            	;
 4137            	587.871     	9.500       	GV              	;
 4149            	582.990     	0.00173     	Hall            	;
 4188            	573.922     	0.00147     	Hall            	;
 4216            	578.950     	6.000       	GV              	;
 4234            	572.404     	0.00044     	Hall            	;
 4241            	572.189     	0.00045     	Hall            	;
 4246            	572.189     	0.00014     	Hall            	;
 4247            	567.393     	0.00051     	Hall            	;
 4259            	579.428     	0.00001     	Hall            	;
 4270            	574.067     	0.00132     	Hall            	;
 4300            	577.099     	0.00051     	Hall            	;
 4333            	573.783     	0.00000     	Hall            	;
 4359            	573.518     	0.00037     	Hall            	;
 4381            	573.577     	0.00046     	Hall            	;
 4382            	568.328     	0.00082     	Hall            	;
 4436            	557.945     	0.00118     	Hall            	;
 4441            	559.617     	0.00057     	Hall            	;
 4477            	559.587     	0.00021     	Hall            	;
 4485            	560.341     	0.00068     	Hall            	;
 4541            	564.544     	0.00053     	Hall            	;
 4556            	566.200     	0.00047     	Hall            	;
 4583            	564.376     	0.00128     	Hall            	;
 4590            	559.179     	0.00060     	Hall            	;
 4642            	559.551     	0.00024     	Hall            	;
 4647            	559.050     	0.00089     	Hall            	;
 4653            	558.953     	0.00093     	Hall            	;
 4662            	559.148     	0.00110     	Hall            	;
 4680            	559.488     	0.00030     	Hall            	;
 4694            	559.479     	0.00000     	Hall            	;
 4702            	559.655     	0.00090     	Hall            	;
 4748            	558.938     	0.00133     	Hall            	;
 4885            	560.305     	0.00130     	Hall            	;
 4979            	560.329     	0.00006     	Hall            	;
 4981            	560.629     	0.00039     	Hall            	;
 5008            	560.369     	0.00001     	Hall            	;
 5009            	562.224     	0.00091     	Hall            	;
 5081            	574.219     	0.00159     	Hall            	;
 5113            	575.270     	0.00035     	Hall            	;
 5149            	575.305     	0.00019     	Hall            	;
 5151            	575.308     	0.00000     	Hall            	;
 5152            	576.925     	0.00077     	Hall            	;
 5192            	583.286     	0.00102     	Hall            	;
 5223            	591.052     	0.00169     	Hall            	;
 5283            	579.813     	0.00180     	Hall            	;
 5386            	585.702     	0.00077     	Hall            	;
 5422            	585.787     	0.00041     	Hall            	;
 5426            	585.342     	0.00060     	Hall            	;
 5441            	586.702     	0.00072     	Hall            	;
 5454            	590.612     	0.00085     	Hall            	;
 5483            	589.263     	0.00060     	Hall            	;
 5511            	587.025     	0.00018     	Hall            	;
 5526            	584.289     	0.00081     	Hall            	;
 5539            	582.343     	0.00082     	Hall            	;
 5555            	579.324     	0.00045     	Hall            	;
 5581            	578.521     	0.00029     	Hall            	;
 5586            	574.536     	0.00122     	Hall            	;
 5602            	566.949     	0.00108     	Hall            	;
 5676            	579.372     	0.00018     	Hall            	;
 5690            	578.484     	0.00002     	Hall            	;
 5694            	582.586     	0.00073     	Hall            	;
 5730            	578.983     	0.00063     	Hall            	;
 5765            	578.419     	0.00121     	Hall            	;
 5802            	566.712     	0.00083     	Hall            	;
 5820            	567.301     	0.00044     	Hall            	;
 5842            	567.407     	0.00001     	Hall            	;
 5849            	567.622     	0.00030     	Hall            	;
 5897            	595.521     	0.00000     	Hall            	;
 5898            	595.553     	0.00000     	Hall            	;
 6014            	589.000     	0.00084     	Hall            	;
 6040            	588.977     	0.00000     	Hall            	;
 6041            	582.518     	0.00152     	Hall            	;
 6097            	580.567     	0.00043     	Hall            	;
 6128            	584.319     	0.00097     	Hall            	;
 6153            	590.927     	0.00119     	Hall            	;
 6179            	590.918     	0.00002     	Hall            	;
 6181            	585.259     	0.00035     	Hall            	;
 6231            	585.204     	0.00001     	Hall            	;
 6232            	585.433     	0.00124     	Hall            	;
 6236            	571.210     	0.00087     	Hall            	;
 6263            	566.926     	0.00030     	Hall            	;
 6286            	583.182     	0.00062     	Hall            	;
 6332            	583.120     	0.00001     	Hall            	;
 6333            	583.130     	0.00069     	Hall            	;
 6337            	589.619     	0.00063     	Hall            	;
 6371            	583.050     	0.00082     	Hall            	;
 6376            	583.855     	0.00084     	Hall            	;
 6417            	582.296     	0.00088     	Hall            	;
 6431            	582.302     	0.00028     	Hall            	;
 6433            	582.159     	0.00001     	Hall            	;
 6438            	577.137     	0.00300     	Hall            	;
 6482            	582.097     	0.00091     	Hall            	;
 6494            	580.799     	0.00066     	Hall            	;
 6526            	577.842     	0.00103     	Hall            	;
 6540            	581.890     	0.00065     	Hall            	;
 6566            	581.921     	0.00000     	Hall            	;
 6592            	580.838     	0.00000     	Hall            	;
 6634            	574.104     	0.00115     	Hall            	;
 6700            	574.254     	0.00054     	Hall            	;
 6728            	574.208     	0.00031     	Hall            	;
 6751            	574.209     	0.00079     	Hall            	;
 6752            	574.392     	0.00145     	Hall            	;
 6892            	571.913     	0.00077     	Hall            	;
 6904            	566.137     	0.00178     	Hall            	;
 6930            	564.048     	0.00192     	Hall            	;
 6956            	565.863     	0.00124     	Hall            	;
 7017            	565.953     	0.00002     	Hall            	;
 7020            	569.197     	0.00047     	Hall            	;
 7059            	569.229     	0.00002     	Hall            	;
 7061            	570.195     	0.00066     	Hall            	;
 7067            	570.204     	0.00033     	Hall            	;
 7069            	575.101     	0.00063     	Hall            	;
 7109            	569.096     	0.00094     	Hall            	;
 7135            	566.750     	0.00069     	Hall            	;
 7174            	567.253     	0.00016     	Hall            	;
 7187            	560.321     	0.00000     	Hall            	;
 7220            	561.628     	0.00171     	Hall            	;
 7270            	566.421     	0.00063     	Hall            	;
 7277            	566.432     	0.00000     	Hall            	;
 7278            	563.706     	0.00164     	Hall            	;
 7309            	563.325     	0.00085     	Hall            	;
 7328            	563.406     	0.00001     	Hall            	;
 7330            	561.553     	0.00075     	Hall            	;
 7348            	561.583     	0.00001     	Hall            	;
 7349            	562.522     	0.00120     	Hall            	;
 7357            	562.390     	3.900       	GV              	;
 7371            	565.491     	0.00117     	Hall            	;
 7386            	563.954     	0.00082     	Hall            	;
 7474            	562.359     	0.00071     	Hall            	;
 7577            	561.898     	0.00047     	Hall            	;
 7590            	560.688     	0.00115     	Hall            	;
 7622            	560.737     	0.00000     	Hall            	;
 7624            	559.917     	0.00126     	Hall            	;
 7669            	560.855     	0.00059     	Hall            	;
 7693            	560.961     	0.00093     	Hall            	;
 7705            	560.018     	0.00083     	Hall            	;
 7726            	560.005     	0.00023     	Hall            	;
 7728            	560.074     	0.00097     	Hall            	;
 7740            	560.533     	0.00081     	Hall            	;
 7761            	560.588     	0.00028     	Hall            	;
 7768            	560.883     	0.00054     	Hall            	;
 7780            	561.273     	0.00060     	Hall            	;
 7785            	561.341     	0.00078     	Hall            	;
 7805            	561.170     	0.00132     	Hall            	;
 7838            	561.151     	0.00166     	Hall            	;
 7842            	561.701     	0.00121     	Hall            	;
 7873            	560.341     	0.00058     	Hall            	;
 7884            	560.596     	0.00107     	Hall            	;
 7889            	560.067     	0.00047     	Hall            	;
 7891            	560.857     	0.00050     	Hall            	;
 7921            	561.424     	0.00051     	Hall            	;
 7941            	561.572     	0.00007     	Hall            	;
 7946            	561.610     	0.00053     	Hall            	;
 7964            	561.605     	0.00008     	Hall            	;
 7969            	561.679     	0.00002     	Hall            	;
 7971            	560.544     	0.00024     	Hall            	;
 7974            	560.539     	0.00001     	Hall            	;
 7975            	560.126     	0.00022     	Hall            	;
 7986            	560.118     	0.00025     	Hall            	;
 8001            	560.026     	0.00024     	Hall            	;
 8018            	561.132     	0.00008     	Hall            	;
 8020            	561.175     	0.00005     	Hall            	;
 8024            	559.782     	0.00152     	Hall            	;
 8063            	560.148     	0.00039     	Hall            	;
 8087            	560.490     	0.00153     	Hall            	;
 8125            	560.799     	0.00097     	Hall            	;
 8139            	560.786     	0.00002     	Hall            	;
 8140            	560.295     	0.00000     	Hall            	;
 8163            	561.271     	0.00141     	Hall            	;
 8199            	561.613     	0.00185     	Hall            	;
 8211            	562.176     	0.00124     	Hall            	;
 8241            	562.772     	0.00160     	Hall            	;
 8244            	563.934     	0.00106     	Hall            	;
 8261            	563.915     	0.01407     	Hall            	;
 8278            	562.168     	0.00003     	Hall            	;
 8280            	565.797     	0.00128     	Hall            	;
 8380            	561.709     	0.00054     	Hall            	;
 8404            	562.142     	0.00029     	Hall            	;
 8406            	562.164     	0.00001     	Hall            	;
 8407            	561.602     	0.00033     	Hall            	;
 8416            	561.771     	0.00050     	Hall            	;
 8427            	561.426     	0.00054     	Hall            	;
 8430            	561.421     	0.00001     	Hall            	;
 8453            	561.495     	0.00059     	Hall            	;
 8464            	561.454     	0.00001     	Hall            	;
 8465            	560.462     	0.00056     	Hall            	;
 8502            	560.457     	0.00001     	Hall            	;
 8510            	560.238     	0.00081     	Hall            	;
 8554            	560.094     	0.00079     	Hall            	;
 8564            	560.050     	0.00001     	Hall            	;
 8565            	560.315     	0.00133     	Hall            	;
 8584            	559.374     	0.00101     	Hall            	;
 8588            	561.787     	0.00078     	Hall            	;
 8619            	559.468     	0.00005     	Hall            	;
 8625            	559.428     	0.00094     	Hall            	;
 8631            	560.025     	0.00058     	Hall            	;
 8636            	559.972     	0.00002     	Hall            	;
 8638            	559.295     	0.00027     	Hall            	;
 8666            	559.263     	0.00051     	Hall            	;
 8667            	559.829     	0.00085     	Hall            	;
 8687            	558.510     	0.00086     	Hall            	;
 8708            	558.905     	0.00040     	Hall            	;
 8713            	559.338     	0.00039     	Hall            	;
 8728            	559.441     	0.00082     	Hall            	;
 8734            	559.364     	0.00035     	Hall            	;
 8751            	559.361     	0.00000     	Hall            	;
 8753            	559.382     	0.00072     	Hall            	;
 8757            	559.550     	0.00093     	Hall            	;
 8770            	559.003     	0.00129     	Hall            	;
 8911            	744.599     	0.00000     	Hall            	;
 8912            	748.967     	0.00004     	Hall            	;
 8919            	747.264     	0.00000     	Hall            	;
 8932            	726.622     	0.00000     	Hall            	;
 8956            	704.095     	0.00001     	Hall            	;
 8957            	704.120     	0.00000     	Hall            	;
 8958            	748.841     	0.00000     	Hall            	;
 8962            	748.448     	0.00000     	Hall            	;
 8965            	559.901     	0.00060     	Hall            	;
 8992            	559.848     	0.00018     	Hall            	;
 8998            	559.311     	0.00040     	Hall            	;
 9007            	559.358     	0.00023     	Hall            	;
 9018            	559.512     	0.00125     	Hall            	;
 9056            	560.567     	0.00075     	Hall            	;
 9074            	561.269     	0.00143     	Hall            	;
 9106            	560.642     	0.00030     	Hall            	;
 9118            	561.020     	0.00138     	Hall            	;
 9141            	560.618     	0.00115     	Hall            	;
 9154            	561.009     	0.00149     	Hall            	;
 9173            	561.426     	0.00092     	Hall            	;
 9195            	561.459     	0.00001     	Hall            	;
 9215            	560.583     	0.00051     	Hall            	;
 9228            	560.566     	0.00001     	Hall            	;
 9229            	561.007     	0.00085     	Hall            	;
 9235            	561.073     	0.00086     	Hall            	;
 9247            	561.108     	0.00002     	Hall            	;
 9250            	561.691     	0.00075     	Hall            	;
 9271            	561.658     	0.00001     	Hall            	;
 9273            	560.474     	0.00128     	Hall            	;
 9301            	561.560     	0.00028     	Hall            	;
 9314            	562.786     	0.00033     	Hall            	;
 9333            	560.844     	0.00158     	Hall            	;
 9337            	562.349     	0.00159     	Hall            	;
 9387            	562.348     	0.00066     	Hall            	;