[JUNCTIONS]
70960 576.79 0.72983 Stadt
70961 574.91 0 Stadt
70962 565.41 0 Stadt
70963 573.42 0.17105 Stadt
70964 575.76 0 Stadt
70965 580.99 0 Stadt
70966 579.46 0 Stadt
70967 565.88 0 Stadt
71249 566.69 0 Stadt
71251 574.56 0 Stadt
71252 579.6 0.15965 Stadt
71253 577.13 0.22807 Stadt
71254 582.97 0 Stadt
71255 571.71 0 Stadt
71256 570.49 0.29649 Stadt
71257 572.73 0 Stadt
71258 564.27 0.068422 Stadt
71259 572.65 0 Stadt
71260 565.08 0 Stadt
71261 578.95 0 Stadt
71262 573.69 0 Stadt
71263 583.87 0 Stadt
71265 566.32 0.079825 Stadt
71266 565.75 0 Stadt
71267 566.6 0 Stadt
71268 571.26 0 Stadt
71269 574.2 0 Stadt
71270 577.85 0.011404 Stadt
71272 581.41 0 Stadt
71273 565.77 0 Stadt
71274 586.34 0.13684 Stadt
71275 579.88 0.51316 Stadt
71276 574.29 0 Stadt
71278 572.06 0 Stadt
71279 571.7 0 Stadt
32588 564.3 0 Stadt
tet1 572.8 0 Stadt
tet2 573.78 0 Stadt
tet3 570.8035 0.11404 Stadt
32597 564.82 0 Stadt
32598 564.85 0 Stadt
33687 604.07 0.034211 Stadt
34165 576.67 0 Stadt
34181 575.821 0 Stadt
35088 565.57 0 Stadt
35407 593.96 0 Stadt
36367 573.9 0.26228 Stadt
37007 565.96 0.90089 Stadt
37327 594.07 0.58159 Stadt
37329 566.16 0.068422 Stadt
37330 576.28 0 Stadt
37967 570.63 0.67281 Stadt
40527 583.14 0 Stadt
40528 582.49 0 Stadt
40529 574.21 0.068422 Stadt
40530 662.36 0 Stadt
40533 597.14 0 Stadt
40847 611.75 0 Stadt
41167 565.04 0 Stadt
42448 575.48 0 Stadt
42767 577.77 0 Stadt
43089 569.6 0 Stadt
43727 577.96 0 Stadt
43728 575.61 0 Stadt
43729 576.2 0 Stadt
43731 577.2 0 Stadt
44047 571.71 0 Stadt
44049 575.48 0 Stadt
44367 572.84 0 Stadt
44694 574.59 0.068422 Stadt
44695 566.27 0 Stadt
46287 564.86 0 Stadt
46608 571.52 0 Stadt
46609 568.85 0 Stadt
46929 565.66 0 Stadt
47250 575.25 0 Stadt
47889 571.78 0 Stadt
48209 570.77 0.68422 Stadt
48225 580.98 0 Stadt
48226 596.43 0 Stadt
48529 583.34 0 Stadt
48530 586.76 0 Stadt
48849 577.69 0 Stadt
49489 665.39 0 Stadt
49490 646.71 0 Stadt
50129 571.75 0 Stadt
50449 599.35 0 Stadt
50770 573.48 0 Stadt
52061 589.28 0.12544 Stadt
52062 593.78 0 Stadt
52063 593.32 0 Stadt
52064 587.37 0.045615 Stadt
52065 586.53 0.36492 Stadt
52066 576.85 0.6158 Stadt
52068 574.72 0.20527 Stadt
52071 578.35 0.70703 Stadt
52072 569.41 0.49036 Stadt
52073 569.75 0.47895 Stadt
52074 566.39 0 Stadt
52075 565.05 0.068422 Stadt
52369 574.31 0.045615 Stadt
52370 572.94 0.29649 Stadt
52372 572.68 0 Stadt
52373 571.82 0.10263 Stadt
52374 570.7 0.22807 Stadt
52375 570.52 0.45615 Stadt
52376 569.52 0.55878 Stadt
52377 570.99 0.49036 Stadt
52380 565.41 0 Stadt
52381 567.25 0 Stadt
52382 575.64 0.068422 Stadt
52383 577.06 0.35351 Stadt
52384 581.94 0.17105 Stadt
52386 575.5 0.022807 Stadt
52393 578.17 0.53597 Stadt
52394 579.01 0.12544 Stadt
52395 580.12 0.23948 Stadt
52396 580.73 0.50176 Stadt
52397 580.56 0.39913 Stadt
52398 578.35 0.21667 Stadt
52400 577.67 0.33071 Stadt
52689 576.59 0.18246 Stadt
52690 573.81 0 Stadt
52691 582.72 0 Stadt
52692 580.51 0 Stadt
52693 581.6 0.079825 Stadt
52695 575.21 0 Stadt
52696 575.05 0.29649 Stadt
52697 575.01 0.71843 Stadt
52698 574.74 0.85527 Stadt
52699 574.51 0.10263 Stadt
52700 575.58 0.53597 Stadt
52701 574.92 0.43334 Stadt
52702 575.35 0.55878 Stadt
52703 575.25 0 Stadt
52704 574.64 0 Stadt
52705 572.4 0.18246 Stadt
52707 574.21 0.19386 Stadt
52708 573.53 0.53597 Stadt
52709 576.51 0 Stadt
52711 573.81 0.51316 Stadt
52712 574.23 0 Stadt
52713 574.48 0.034211 Stadt
52714 573.98 0.41053 Stadt
52715 574.61 0.59299 Stadt
52719 574.32 0.18246 Stadt
52720 574.23 0.011404 Stadt
52721 574.43 0 Stadt
52722 574.53 0.068422 Stadt
52723 573.36 0.71843 Stadt
52724 575.36 0.25088 Stadt
52725 575.25 0.011404 Stadt
52726 575.34 0.057018 Stadt
52727 575.18 0.022807 Stadt
52728 575.57 0.14825 Stadt
52729 576.18 0 Stadt
52730 575.68 0 Stadt
52731 576.79 0.10263 Stadt
52732 576.12 0.25088 Stadt
52733 576.81 0.35351 Stadt
52734 576.6 0 Stadt
52736 614.81 0.36492 Stadt
52738 602.51 0 Stadt
52743 617.56 0.022807 Stadt
53009 600.74 0 Stadt
53329 581.36 0 Stadt
53330 574.97 0 Stadt
53331 574.12 0 Stadt
54609 567.95 0 Stadt
54929 569.35 0 Stadt
55249 570.65 0 Stadt
55569 573.1 0 Stadt
55889 572.79 0.022807 Stadt
56209 594.72 0 Stadt
56210 577.03 0 Stadt
56849 573.7 0 Stadt
57489 579.56 0 Stadt
58129 569.95 0 Stadt
58770 565.19 0 Stadt
59089 578.61 0.80966 Stadt
59090 576.88 0 Stadt
59409 573.67 0 Stadt
59410 574.64 0 Stadt
59411 574.74 0 Stadt
59729 565.2 0 Stadt
59730 565.02 0 Stadt
59731 564.67 0 Stadt
59732 575.25 0 Stadt
60049 576.07 0 Stadt
60369 575.32 0 Stadt
61009 573.47 0 Stadt
61010 573.6 0 Stadt
61329 573.84 0 Stadt
61331 583.83 0 Stadt
61332 584.96 0 Stadt
61334 584.51 0 Stadt
61335 582.49 0 Stadt
61336 582.46 0 Stadt
61650 565.05 0 Stadt
61969 580.98 0 Stadt
61970 581.11 0 Stadt
62929 609.95 0 Stadt
63569 575.91 0 Stadt
64209 592.99 0 Stadt
64212 577.05 0 Stadt
64529 573.81 0 Stadt
64849 574.44 0 Stadt
65169 571.88 0 Stadt
65170 572.38 0 Stadt
65489 574.07 0 Stadt
65490 572.22 0 Stadt
65491 564.59 0 Stadt
65492 578.44 0 Stadt
65493 573.78 0 Stadt
65506 572.55 0 Stadt
65508 575.96 0 Stadt
65509 575.94 0 Stadt
65512 576.07 0 Stadt
65513 575.72 0 Stadt
65514 648.95 0 Stadt
65809 646.72 0 Stadt
65811 575.65 0 Stadt
66129 592.62 0 Stadt
66140 593.91 0 Stadt
66141 594.62 0 Stadt
66142 573.4 0 Stadt
66143 593.53 0 Stadt
66144 581.46 0 Stadt
66449 573.91 0 Stadt
66769 574.23 0 Stadt
66770 573.98 0 Stadt
67091 574.1 0 Stadt
67092 574.4 0.079825 Stadt
67410 603.16 0 Stadt
67411 605.42 0 Stadt
67412 610.12 0 Stadt
67734 565.28 0 Stadt
67735 592.7 0 Stadt
68050 565.36 0 Stadt
68051 565.6 0 Stadt
68052 565.72 0 Stadt
68053 566.06 0 Stadt
68054 565.89 0 Stadt
68055 611.75 0 Stadt
68056 611.56 0 Stadt
68369 578.53 0 Stadt
69009 575.5 0 Stadt
69010 575.33 0 Stadt
69329 576.56 0 Stadt
69331 576.83 0 Stadt
70289 599.05 0 Stadt
70290 604.49 0 Stadt
70297 565.57 0 Stadt
70298 577.05 0.091229 Stadt
70299 575.46 0 Stadt
70300 580.12 0 Stadt
70610 566.26 0 Stadt
70611 582.03 0.10263 Stadt
70614 579.87 0 Stadt
70615 573.36 0 Stadt
70616 573.18 0 Stadt
70617 566.92 0 Stadt
70618 569.8 0.71843 Stadt
70619 582.07 0 Stadt
70620 574.99 0.3193 Stadt
70621 576.31 0 Stadt
70623 581.3 0 Stadt
70929 571.507 0 Stadt
70930 577.72 0.3193 Stadt
70932 565.81 0 Stadt
70934 573.81 0.13684 Stadt
70935 574.18 0 Stadt
70937 571.742 0 Stadt
70939 573.62 0 Stadt
70940 564.926 0 Stadt
70941 576.595 0 Stadt
70942 573.29 0 Stadt
70943 564.66 0.13684 Stadt
70944 578.81 0 Stadt
70945 627.16 0 Stadt
70946 566.82 0 Stadt
70947 564.1583 0 Stadt
70958 580.38 0 Stadt
70959 579.34 0 Stadt
71281 565.144 0 Stadt
71570 572.72 0 Stadt
71571 573.99 0 Stadt
71572 571.94 0.21667 Stadt
71574 574.44 0 Stadt
71575 574.12 0.022807 Stadt
71576 571.85 0 Stadt
71577 572.24 0 Stadt
71578 578.78 0 Stadt
71579 578.958 0 Stadt
71580 581.06 0 Stadt
71581 576.43 0.10263 Stadt
71582 583.04 0.22807 Stadt
71585 641.98 0 Stadt
71586 601.07 0 Stadt
71601 569.22 1.5281 Stadt
71602 567.32 0 Stadt
71603 575.83 0.84387 Stadt
71604 565.8 0 Stadt
71605 606.97 0 Stadt
71606 586.77 0 Stadt
71607 575.87 0 Stadt
71608 581.56 0.70703 Stadt
71609 572.51 0 Stadt
71610 576.57 0 Stadt
71611 572.57 0 Stadt
71617 564.973 0 Stadt
71618 567.35 0.19386 Stadt
71619 568.59 0 Stadt
71620 569.87 0 Stadt
71621 570.15 0 Stadt
71633 571.87 0.10263 Stadt
71634 582.02 0 Stadt
71635 567.87 1.0263 Stadt
71636 565.87 0 Stadt
71637 572.64 0.19386 Stadt
71639 575.3 0 Stadt
71640 576.73 0 Stadt
71641 567.11 0 Stadt
71642 567.77 0 Stadt
71643 574.81 0.045615 Stadt
71644 565.09 0 Stadt
71645 572.12 0 Stadt
71646 586.27 0 Stadt
71647 575.48 0 Stadt
71648 583.81 0 Stadt
71889 580.47 0 Stadt
71890 571.711 0 Stadt
71891 571.34 0 Stadt
71892 591.87 0 Stadt
71893 573.37 0 Stadt
71894 577.9 0.068422 Stadt
71895 584.45 0 Stadt
71896 597.865 0 Stadt
71897 569.6 0.11404 Stadt
71898 580.88 0 Stadt
71906 573.78 0 Stadt
71907 573.05 0 Stadt
71908 577.46 0 Stadt
71909 579.43 0.47895 Stadt
71921 571.68 0.18246 Stadt
71922 575.02 0.98071 Stadt
71923 585.48 0 Stadt
71937 575.11 0 Stadt
71938 595.2 0 Stadt
71939 568.76 0 Stadt
71940 566.12 0 Stadt
71941 573.63 0.58159 Stadt
71942 568.99 0 Stadt
71943 574.94 0.91229 Stadt
71944 571.998 0 Stadt
71946 575.88 0.15965 Stadt
71947 576.77 0 Stadt
71948 564.77 0.43334 Stadt
71953 564.45 0.022807 Stadt
71969 572.46 0.41053 Stadt
71970 565.15 0 Stadt
71971 564.85 0 Stadt
71973 586.86 0.068422 Stadt
71974 568.06 0.14825 Stadt
71975 575.62 0 Stadt
71976 573.27 0.068422 Stadt
71977 592.71 0.022807 Stadt
71978 566.57 0.47895 Stadt
71979 577.89 0 Stadt
71981 571.28 0 Stadt
71982 577.09 0 Stadt
71983 581.44 0 Stadt
71984 567.38 0 Stadt
71985 578.34 0 Stadt
71986 575.47 0.25088 Stadt
71987 580.1 0 Stadt
71988 571.24 0 Stadt
72001 565.8 0.068422 Stadt
72002 566.2 0.55878 Stadt
72003 564.57 0.045615 Stadt
72004 565.65 0 Stadt
72005 568.68 0.011404 Stadt
72006 565.47 0 Stadt
72007 578.35 0.045615 Stadt
72008 565.07 0 Stadt
72009 573.79 0 Stadt
72010 572.86 0.54737 Stadt
72011 565.34 0 Stadt
72012 586.342 0 Stadt
72013 566.64 0 Stadt
72014 590.12 0.18246 Stadt
72015 586.24 0.091229 Stadt
72016 578.99 0 Stadt
72209 565.71 0 Stadt
72210 565.94 0 Stadt
72212 567.8 0 Stadt
72213 574.01 0.35351 Stadt
72214 574.76 0 Stadt
72215 574.95 1.186 Stadt
72216 564.82 0 Stadt
72217 566.69 0.022807 Stadt
72218 576.64 0 Stadt
72219 599.07 0 Stadt
72220 573.27 0.28509 Stadt
72221 565.51 2.8509 Stadt
72222 580.21 0 Stadt
72223 574.55 0 Stadt
72224 575.62 0 Stadt
72225 571.56 0 Stadt
72226 572.22 0.13684 Stadt
72227 595.386 0 Stadt
72228 579.94 0.3079 Stadt
72230 567.63 0.57018 Stadt
72231 570.06 1.3912 Stadt
72232 576.58 0 Stadt
72233 578.274 0 Stadt
72234 565.05 0 Stadt
72241 573.745 0 Stadt
72257 569.978 0 Stadt
72274 567.23 0 Stadt
72275 577.09 0 Stadt
72277 565.597 0 Stadt
72278 566.72 0 Stadt
72279 566.182 0 Stadt
72280 565.023 0 Stadt
72281 565.789 0 Stadt
72282 565.797 0 Stadt
72283 576.7 0.21667 Stadt
72284 580.21 0 Stadt
72289 577.24 0 Stadt
72290 567.07 0 Stadt
72291 570.06 0 Stadt
72292 579.53 0.057018 Stadt
72293 572.95 0 Stadt
72294 572.08 0 Stadt
72295 566.97 0.12544 Stadt
72296 577.33 0 Stadt
72297 581 0 Stadt
72298 570.131 0 Stadt
72300 569.81 0.52457 Stadt
72306 569.99 0.17105 Stadt
72307 565.64 0 Stadt
72308 572.34 0.21667 Stadt
72322 569.849 0 Stadt
72323 577.66 0.19386 Stadt
72324 571.19 0.34211 Stadt
72325 573.69 0.45615 Stadt
72326 568.42 0.88948 Stadt
72327 566.34 0 Stadt
72529 605.68 0 Stadt
72548 615.53 0 Stadt
72550 580.54 0 Stadt
72561 567.15 0.41053 Stadt
72562 578.82 0 Stadt
72563 565.01 0 Stadt
72564 566.64 0 Stadt
72565 571.99 0 Stadt
72566 568.47 1.0149 Stadt
72567 576.47 0 Stadt
72568 596.948 0 Stadt
72577 563.982 0 Stadt
72579 565.55 0.3193 Stadt
72580 565.13 0 Stadt
72582 582.13 0.35351 Stadt
72583 574.09 0 Stadt
72584 574.53 0 Stadt
72585 573.83 0 Stadt
72586 573.53 0.55878 Stadt
72593 572.63 0 Stadt
72594 573.46 0 Stadt
72609 580.17 1.129 Stadt
72611 581.21 0 Stadt
72612 573.24 0 Stadt
72613 565 0.057018 Stadt
72614 577.49 0 Stadt
72615 585.41 0.022807 Stadt
72616 573.98 0 Stadt
72617 566.11 0.045615 Stadt
72618 581.77 0.55878 Stadt
72620 565.6 0 Stadt
72622 571.709 0 Stadt
72623 572.6 0 Stadt
72624 565.76 0 Stadt
72849 578.8 0 Stadt
72850 574.3 0 Stadt
72851 566.45 0 Stadt
72852 577.12 0.034211 Stadt
72853 580 0 Stadt
72854 579.4 0 Stadt
72855 567.8 0 Stadt
72856 565.66 0 Stadt
72857 573.18 0.3079 Stadt
72858 571.43 0 Stadt
72860 565.3 0 Stadt
75139 574.847 0 Stadt
75141 573.33 0.36492 Stadt
75142 574.98 0 Stadt
75143 577.15 0.67281 Stadt
75145 576.63 0 Stadt
75153 576.93 1.0605 Stadt
75155 574.87 0.59299 Stadt
75160 575.29 0 Stadt
75164 620.21 0 Stadt
75169 576.09 0.011404 Stadt
75170 575.84 0 Stadt
75171 577.65 0 Stadt
75217 575.87 0 Stadt
75218 576.09 0 Stadt
75219 573.23 0 Stadt
75220 576.21 0 Stadt
75221 597.78 0 Stadt
75224 573.392 0 Stadt
75225 570.17 0 Stadt
75226 598.48 0 Stadt
75227 569.53 0 Stadt
75233 573.71 0 Stadt
75234 571.13 0.045615 Stadt
75235 573.27 0 Stadt
75236 574.64 0 Stadt
75237 574.24 0 Stadt
75238 570.71 0.21667 Stadt
75239 570.8 0 Stadt
75243 575.24 0 Stadt
75244 602.49 0 Stadt
75245 586.2 0 Stadt
75409 574.17 0 Stadt
75410 576.09 0 Stadt
75411 575.49 0 Stadt
75413 574.6 0 Stadt
75414 584.02 0 Stadt
75415 575.15 0.35351 Stadt
75416 577.91 0 Stadt
75417 578.86 0 Stadt
75418 574.43 0.52457 Stadt
75419 575.42 0 Stadt
75421 564.7 0 Stadt
75422 572.04 0 Stadt
75423 574.19 0 Stadt
75424 571.85 0 Stadt
75425 571.73 0.21667 Stadt
75428 573.41 0.057018 Stadt
75429 574.35 0 Stadt
75430 572.01 0.057018 Stadt
75431 574.52 0 Stadt
75433 581.95 0 Stadt
75434 581.13 0 Stadt
75435 572.45 0.079825 Stadt
75436 572.66 0.057018 Stadt
75437 565.18 0 Stadt
75438 564.94 2.9878 Stadt
75439 571.39 0 Stadt
75440 617.9427 0 Stadt
75441 573.53 0 Stadt
75442 581.07 0.034211 Stadt
75443 575.31 0.9465 Stadt
75444 575.07 0.59299 Stadt
75446 581.87 0 Stadt
75457 581.74 0 Stadt
75458 576.34 0.42193 Stadt
75459 577.78 0 Stadt
75460 576.99 0 Stadt
75461 577.2 0.38772 Stadt
75462 576.92 0.079825 Stadt
75463 571.09 0 Stadt
75464 570.48 0 Stadt
75465 597.05 0 Stadt
75466 567.441 0 Stadt
75467 593.53 0 Stadt
75468 592.77 0 Stadt
75469 633.36 0 Stadt
75470 577.36 0 Stadt
75471 569.813 0 Stadt
75472 569.98 0 Stadt
75729 565.66 0 Stadt
75730 572.48 0 Stadt
75731 574.62 0 Stadt
75732 568.332 0 Stadt
75733 566.45 0 Stadt
75734 569.39 0 Stadt
75736 565.64 0 Stadt
75737 573.1 0 Stadt
75738 604.98 0 Stadt
75739 564.78 0 Stadt
75741 575.48 0.14825 Stadt
75742 576.87 0 Stadt
75743 572.79 0 Stadt
75744 574.1 0 Stadt
75745 572.93 0.068422 Stadt
75761 573.05 0.23948 Stadt
75778 577.39 0 Stadt
75780 573.6 0 Stadt
75781 570.99 0 Stadt
75782 573.68 0 Stadt
75783 574.35 0 Stadt
75784 573.18 0 Stadt
75785 572.4 0 Stadt
75786 573.61 1.0605 Stadt
75787 572.17 0.36492 Stadt
75788 574.38 0 Stadt
75789 573.63 0 Stadt
75791 570.81 0 Stadt
75792 572.71 0 Stadt
75793 596.55 0 Stadt
75794 575.14 0 Stadt
75796 597.244 0 Stadt
75799 572.41 0 Stadt
75800 573.77 0.58159 Stadt
75801 590.32 0 Stadt
75802 603.03 0 Stadt
75805 576.23 0 Stadt
75806 574.51 0 Stadt
75807 574.96 0 Stadt
75808 574.02 0 Stadt
75809 573.67 0.27369 Stadt
75810 573.75 0 Stadt
75811 604.86 0 Stadt
75812 574.65 0 Stadt
75813 573.91 0 Stadt
75814 599.8 0 Stadt
75815 573.09 0.87808 Stadt
75816 575.48 0 Stadt
75817 573.78 0 Stadt
75818 569.92 0 Stadt
75819 573.24 0 Stadt
75820 574.48 0 Stadt
75821 574.4 0 Stadt
75822 574 0.51316 Stadt
75826 603.71 0 Stadt
75827 573.61 0 Stadt
75828 573.91 0.19386 Stadt
75829 573.47 0 Stadt
75830 575.1 0 Stadt
75831 574.87 0 Stadt
75838 573.75 0.068422 Stadt
75839 577.19 0 Stadt
77065 577.75 0 Stadt
77067 572.59 0.091229 Stadt
77073 573.64 0 Stadt
77095 591.94 0 Stadt
77096 607.559 0 Stadt
77097 575.26 0.17105 Stadt
77109 591.24 0 Stadt
77123 565.67 0 Stadt
77124 583.79 0.53597 Stadt
77126 577.31 1.4711 Stadt
77127 565.54 0 Stadt
78610 580.23 0 Stadt
78611 571.14 0.10263 Stadt
78612 570.49 0.33071 Stadt
78613 565.35 0 Stadt
78614 579.9 0.92369 Stadt
78615 564.84 0 Stadt
78616 579.65 0 Stadt
78617 587.964 0 Stadt
78618 571.03 0 Stadt
78619 571.33 0.23948 Stadt
78620 574.08 0 Stadt
78622 577.43 0 Stadt
78624 564.174 0 Stadt
78627 607.79 0 Stadt
78628 565.86 0 Stadt
78630 564.41 0 Stadt
78631 576 0 Stadt
78632 577.49 0 Stadt
78634 567.137 0 Stadt
78635 582.48 0 Stadt
78636 573.06 0 Stadt
78637 574.1 0 Stadt
78638 569.94 0 Stadt
78641 574.78 0 Stadt
78642 576.37 0 Stadt
78643 581.39 0 Stadt
78645 581.286 0 Stadt
78649 564.14 0 Stadt
78650 573.76 0.22807 Stadt
78651 570.88 0.21667 Stadt
78652 571.83 0 Stadt
78653 574.05 0.057018 Stadt
78654 573.86 0 Stadt
78657 571.62 0 Stadt
78658 575.68 0 Stadt
78659 580.56 0 Stadt
78660 567.38 0 Stadt
78661 573.68 0.034211 Stadt
78663 586.576 0 Stadt
78664 579.51 0 Stadt
78673 570.2 0.13684 Stadt
78674 567.22 0 Stadt
78675 564.975 0 Stadt
78676 575.55 0.25088 Stadt
78677 610.97 0 Stadt
78678 574.86 0 Stadt
78930 574.25 0 Stadt
78931 575.67 0 Stadt
78932 572.56 0.38772 Stadt
78934 592.47 0 Stadt
78935 575.7 0 Stadt
78936 570.54 0.38772 Stadt
78937 579.08 0 Stadt
78938 576.75 0 Stadt
78940 574.17 0 Stadt
78942 578.42 0 Stadt
78943 607.3 0 Stadt
78944 584.92 0.35351 Stadt
78946 573.7 0 Stadt
78947 573.09 0 Stadt
78948 614.84 0 Stadt
78949 575.48 0 Stadt
78953 576.3 0 Stadt
78954 576.25 0 Stadt
78956 576.479 0 Stadt
78957 575.77 0 Stadt
78958 579.06 0 Stadt
78960 574.13 0.057018 Stadt
78961 573.83 0 Stadt
78962 571.65 0.12544 Stadt
78963 568.48 0 Stadt
78964 579.77 0.3193 Stadt
78966 564.8 0 Stadt
78979 574.07 0.20527 Stadt
78980 574.83 0 Stadt
78981 573.7 0 Stadt
74509 565.11 0.28509 Stadt
74511 567.71 0 Stadt
74512 563.611 0 Stadt
74513 573.45 0 Stadt
74529 575.439 0 Stadt
74530 576.45 0.12544 Stadt
74531 577.52 0 Stadt
74544 576.82 0 Stadt
74546 576.42 0 Stadt
74547 612.925 0 Stadt
74548 574.12 0 Stadt
74549 575.52 0.21667 Stadt
74770 578.14 0 Stadt
74772 574.03 0 Stadt
74774 570.83 0 Stadt
74775 616.432 0 Stadt
74776 576.102 0 Stadt
74778 577.19 0.17105 Stadt
74779 565.657 0 Stadt
74780 566.59 0.41053 Stadt
74781 565.16 0 Stadt
74782 576.07 1.2316 Stadt
74783 565.66 0 Stadt
74785 571.22 0.45615 Stadt
74786 577.31 0.54737 Stadt
74788 582.22 0.11404 Stadt
74789 567.8 0.21667 Stadt
74790 574.672 0 Stadt
74791 571.1 1.0035 Stadt
74792 565.753 0 Stadt
74793 566.572 0 Stadt
74794 571.57 0.33071 Stadt
74795 570.34 0.9465 Stadt
74796 568.66 0 Stadt
74797 584.86 0 Stadt
74799 569.85 0.057018 Stadt
74800 576.11 0 Stadt
74801 577.921 0 Stadt
74802 593.08 0 Stadt
74803 573.18 0 Stadt
74804 566.16 0 Stadt
74805 582.82 0 Stadt
74806 578.34 0 Stadt
74807 577.65 0 Stadt
74808 602.1 0 Stadt
74809 564.93 0.59299 Stadt
74810 577.85 0 Stadt
74811 564.88 0 Stadt
74812 566.27 0 Stadt
74813 581.65 0 Stadt
74815 573.04 0 Stadt
74816 580.02 0.12544 Stadt
74817 578.02 0 Stadt
74818 573.93 0.022807 Stadt
74819 576.25 0 Stadt
74820 572.359 0 Stadt
74821 586.56 0 Stadt
74822 574.35 0 Stadt
74823 569.83 0.20527 Stadt
74824 575.14 0.28509 Stadt
74825 571.6 0 Stadt
74826 580.49 0.46755 Stadt
72861 564.81 0 Stadt
72865 569.18 0.33071 Stadt
72866 568 0 Stadt
72867 570.32 0.14825 Stadt
72868 576.19 1.1974 Stadt
72869 571.73 0 Stadt
72870 571.83 0 Stadt
72881 570.37 0.33071 Stadt
72882 574.03 0 Stadt
72883 569.95 0 Stadt
72897 570.43 0.26228 Stadt
72898 575.37 0 Stadt
72899 568.847 0 Stadt
72900 566.25 0.43334 Stadt
72913 577.26 0 Stadt
72929 581.13 0.18246 Stadt
72930 588.86 0 Stadt
72931 571.27 0 Stadt
72932 573.16 0 Stadt
72933 567.58 0 Stadt
72934 571.15 0.84387 Stadt
72935 576.26 0 Stadt
72936 573.93 0.034211 Stadt
72937 577.31 0 Stadt
72938 573.63 0 Stadt
72939 565.294 0 Stadt
72940 572.07 0 Stadt
72941 575.75 0 Stadt
72946 565.94 0 Stadt
72947 572.83 0 Stadt
72948 566.294 0 Stadt
72949 572.19 0 Stadt
72950 569.92 0 Stadt
72951 566.32 0 Stadt
72952 576.14 1.3798 Stadt
72953 570.84 0 Stadt
72955 565.531 0 Stadt
72956 571.49 0 Stadt
72957 565.31 0 Stadt
73170 566.42 0 Stadt
73171 565.01 0.011404 Stadt
73172 574.86 0.091229 Stadt
73174 578.42 0 Stadt
73176 569.87 0.3079 Stadt
73177 597.06 0 Stadt
73178 590.877 0 Stadt
73185 572.17 0 Stadt
73186 579.95 0 Stadt
73187 567.06 1.186 Stadt
73188 571.84 0.15965 Stadt
73189 580.143 0 Stadt
73190 579.72 0.74124 Stadt
73191 571.82 0.36492 Stadt
73192 579.82 0 Stadt
73193 573.41 0 Stadt
73194 570.8 0 Stadt
73195 563.723 0 Stadt
73196 582.85 0.10263 Stadt
73197 576.25 0.47895 Stadt
73198 571.52 0 Stadt
73489 610.754 0 Stadt
73490 571.57 0 Stadt
73491 567.73 0 Stadt
73492 568.22 0 Stadt
73493 589.79 0.85527 Stadt
73494 605.262 0 Stadt
73495 620.648 0 Stadt
73497 570.79 0.54737 Stadt
73498 571.11 0.18246 Stadt
73499 589.609 0 Stadt
73500 570.26 0 Stadt
73501 584.24 0 Stadt
73502 577.81 0.045615 Stadt
73505 568.96 0 Stadt
73506 624.18 0 Stadt
73508 569.05 0 Stadt
73509 568.12 0 Stadt
73521 570.44 0.52457 Stadt
73522 568.07 0.17105 Stadt
73523 590.34 0 Stadt
73524 566.02 0 Stadt
73525 580.86 0 Stadt
73526 577.51 0.11404 Stadt
73527 567.06 0 Stadt
73528 563.608 0 Stadt
73529 585.414 0 Stadt
73530 571.62 0.21667 Stadt
73531 576.19 0 Stadt
73809 571.07 0.034211 Stadt
73810 569.58 0 Stadt
73812 585.103 0 Stadt
73813 568.44 0.95791 Stadt
73814 596.42 0 Stadt
73815 580.85 0.59299 Stadt
73816 574.93 0.80966 Stadt
73817 578.1 0.42193 Stadt
73818 583.42 0.011404 Stadt
73819 572 0.079825 Stadt
73820 577.66 0.19386 Stadt
73821 575.42 0.55878 Stadt
73822 566.22 0 Stadt
73823 572.39 0 Stadt
73824 564.88 0 Stadt
73825 577.4 0 Stadt
73826 572.13 0 Stadt
73827 578.85 0.95791 Stadt
73841 574.054 0 Stadt
73842 574.258 0 Stadt
73844 578.88 0 Stadt
73857 571.89 0.17105 Stadt
73859 563.83 0 Stadt
73860 566.51 1.4825 Stadt
73861 573.91 0.28509 Stadt
73862 578.9 0.46755 Stadt
73864 570.63 0 Stadt
73865 582.76 0 Stadt
73866 573.67 0 Stadt
73868 564.46 1.0719 Stadt
73869 580.34 0 Stadt
73870 570.92 0 Stadt
73871 587.68 0 Stadt
73873 580.58 0 Stadt
73875 570.12 0 Stadt
73877 572.37 0.90089 Stadt
73878 569.77 0.17105 Stadt
73889 570 0.42193 Stadt
73890 568.23 0 Stadt
73891 580.17 0.39913 Stadt
73892 567.12 0 Stadt
73893 584.504 0 Stadt
73894 566.98 0 Stadt
74129 591.01 0 Stadt
74130 567.19 0 Stadt
74131 565.29 0 Stadt
74132 574.4 0 Stadt
74134 574.122 0 Stadt
74135 569.95 0.3193 Stadt
74136 567.14 0.83247 Stadt
74137 564.904 0 Stadt
74138 570.08 0.011404 Stadt
74139 571.37 0 Stadt
74140 564.86 0 Stadt
74141 574.93 0.091229 Stadt
74142 569.06 0 Stadt
74143 565.69 0 Stadt
74144 577.24 0.49036 Stadt
74162 579.74 0.19386 Stadt
74163 567.41 0.34211 Stadt
74164 569.937 0 Stadt
74165 572.46 0 Stadt
74167 570.8 0.20527 Stadt
74168 576.5 0.44474 Stadt
74177 566.52 1.0605 Stadt
74178 571.01 0 Stadt
74179 564.99 0 Stadt
74180 575.6 0 Stadt
74181 576.31 0 Stadt
74182 571.08 0 Stadt
74193 579.43 0 Stadt
74194 579.2 0 Stadt
74198 567.97 0.49036 Stadt
74199 567.37 0 Stadt
74200 564.5 0 Stadt
74201 576.46 0 Stadt
74202 575.028 0 Stadt
74203 565.58 0.045615 Stadt
74204 571.89 0 Stadt
74205 573.56 0.19386 Stadt
74206 574.37 0 Stadt
74207 572.427 0 Stadt
74208 582.65 0 Stadt
74209 581.15 0.18246 Stadt
74210 564.89 0.079825 Stadt
74211 571.77 0 Stadt
74212 575.87 0 Stadt
74213 579.6 0 Stadt
74214 573.48 0 Stadt
74215 573.25 0 Stadt
74216 584.77 0 Stadt
74217 569.77 0.70703 Stadt
74227 580.47 0.18246 Stadt
74228 574.53 0 Stadt
74229 571.09 0.15965 Stadt
74230 579.845 0 Stadt
74231 566.75 0 Stadt
74232 572.889 0 Stadt
74233 570.81 0 Stadt
74234 573.33 0 Stadt
74235 565.51 0 Stadt
74236 567.72 0 Stadt
74240 568.86 0 Stadt
74241 570.77 0 Stadt
74242 567.75 1.9158 Stadt
74257 578 0 Stadt
74258 574.58 0 Stadt
74260 571.34 0 Stadt
74261 582.48 0 Stadt
74263 569.38 0.11404 Stadt
74264 571.1 0 Stadt
74265 575.14 0 Stadt
74450 635.019 0 Stadt
74452 602.89 0 Stadt
74453 574.44 0.88948 Stadt
74454 572.889 0 Stadt
74455 566.97 0.29649 Stadt
74457 567.52 0 Stadt
74465 577.44 0 Stadt
74466 573.2 0 Stadt
74467 573.36 0 Stadt
74468 567.06 0 Stadt
74470 579.44 0 Stadt
74471 579.78 0.26228 Stadt
74472 581.76 0 Stadt
74473 572.22 0 Stadt
74475 572.06 0 Stadt
74477 564.62 1.0833 Stadt
74478 579.8 0.27369 Stadt
74479 570.83 0.28509 Stadt
74480 570.248 0 Stadt
74497 576.93 0.079825 Stadt
74498 589.78 0 Stadt
74499 569.34 0.35351 Stadt
74500 580.59 0 Stadt
74502 581.44 0.057018 Stadt
74504 565.66 0 Stadt
74505 568.12 0.69562 Stadt
74507 563.82 0 Stadt
74829 569.28 0 Stadt
74830 598.58 0 Stadt
74831 565.59 0 Stadt
74832 604.02 0 Stadt
74833 599.37 0 Stadt
74849 579.91 0 Stadt
74850 571.8 0 Stadt
74861 580.86 0 Stadt
74862 574.19 0 Stadt
74863 574.55 0 Stadt
74864 574.32 0 Stadt
74865 574.22 0 Stadt
74881 570.91 0.15965 Stadt
74882 570.58 0 Stadt
74883 571.97 0.045615 Stadt
74884 563.457 0 Stadt
74897 573.45 0 Stadt
74898 572.18 0 Stadt
74913 569.23 0.19386 Stadt
74914 593.22 0 Stadt
74915 566.55 0 Stadt
74916 590.59 0.068422 Stadt
74917 591.88 0.29649 Stadt
74918 602.73 0 Stadt
74919 578.91 0 Stadt
74920 569.23 0.034211 Stadt
74923 574.9 0 Stadt
74924 565.86 0 Stadt
74925 597.46 0 Stadt
74926 572.93 0 Stadt
74927 588.38 0 Stadt
75089 576.32 0.19386 Stadt
75090 575.177 0 Stadt
75091 578.06 0.58159 Stadt
75092 579.24 0 Stadt
75093 578.38 0.49036 Stadt
75094 574.057 0 Stadt
75096 625.173 0.079825 Stadt
75099 602.86 0 Stadt
75101 579.62 0 Stadt
75102 575.676 0 Stadt
75105 572.97 0.091229 Stadt
75106 635.92 0 Stadt
75108 576.12 0 Stadt
75110 570.78 0.022807 Stadt
75113 570.74 0 Stadt
75114 643.876 0 Stadt
75115 574.32 0.034211 Stadt
75116 584.27 0 Stadt
75122 575.084 0 Stadt
75124 571.66 0 Stadt
75125 577.84 0 Stadt
75137 574.25 0 Stadt
77128 569.12 0.46755 Stadt
77129 568.75 0 Stadt
77130 585.58 0 Stadt
76049 612.92 0.12544 Stadt
76050 574.7 0 Stadt
76051 574.61 0 Stadt
76052 573.99 0.091229 Stadt
76053 574.41 0 Stadt
76054 574.2 0 Stadt
76055 574.1 0 Stadt
76056 573.37 0 Stadt
76057 573.84 0.17105 Stadt
76060 576.34 0.3079 Stadt
76061 580.86 0.034211 Stadt
76062 582.56 0 Stadt
76063 580.96 0 Stadt
76064 581.03 0 Stadt
76065 583.08 0 Stadt
76066 574.26 0 Stadt
76068 575.66 0 Stadt
76069 569.45 0 Stadt
76070 572.85 0 Stadt
76071 572.22 0 Stadt
76073 566.26 0 Stadt
76074 574.889 0 Stadt
76075 575.82 0 Stadt
76077 578.49 0 Stadt
76083 574.5 0 Stadt
76086 574.94 0 Stadt
76091 576.55 0.10263 Stadt
76094 576.77 0 Stadt
76095 572.99 0 Stadt
76096 575.29 0 Stadt
76097 573.77 0 Stadt
76098 575.03 0 Stadt
76099 575.32 0 Stadt
76100 575.04 0 Stadt
76101 574.71 0 Stadt
76102 574.22 0 Stadt
76113 574.77 0 Stadt
76114 574.24 0 Stadt
76115 574.14 0 Stadt
76117 565.56 0 Stadt
76118 576.2 0 Stadt
76119 566.96 0 Stadt
76120 572.4 0 Stadt
76123 566 0 Stadt
76124 571.06 0 Stadt
76125 567.65 0 Stadt
76126 567.18 0 Stadt
76127 573.89 0 Stadt
76128 574.51 0 Stadt
76130 575.25 0 Stadt
76145 618.95 0 Stadt
76369 576.03 0.045615 Stadt
76370 574.32 0 Stadt
76371 576.28 0 Stadt
76372 576.02 0.022807 Stadt
76373 565.15 0 Stadt
76374 567.11 0.057018 Stadt
76375 572.13 0.11404 Stadt
76376 583.8 0 Stadt
76377 567.26 0 Stadt
76378 571.565 0 Stadt
76379 574.97 0 Stadt
76380 573.13 0.18246 Stadt
76382 572.316 0 Stadt
76383 579.41 0 Stadt
76384 573.3 0 Stadt
76388 604.48 0.26228 Stadt
76389 575.61 0 Stadt
76390 577.02 0 Stadt
76391 572.68 0 Stadt
76392 598.84 0.17105 Stadt
76395 575.19 0 Stadt
76398 608.21 0 Stadt
76399 574.99 1.6991 Stadt
76400 581.01 0 Stadt
76401 570.97 0 Stadt
76402 573.729 0 Stadt
76403 568.08 0 Stadt
76404 566.11 0 Stadt
76405 595.867 0 Stadt
76406 573.05 0 Stadt
76407 592.759 0 Stadt
76408 575.12 0 Stadt
76409 577.9 0 Stadt
76410 595.89 0 Stadt
76411 575.18 0.079825 Stadt
76412 577.77 0 Stadt
76413 576.95 0 Stadt
76414 577.82 0 Stadt
76415 575.28 0 Stadt
76416 580.11 0 Stadt
76424 608.44 0 Stadt
76426 609.32 0 Stadt
76427 624.35 0 Stadt
76433 575.72 0 Stadt
76434 576.03 0.068422 Stadt
76435 599.56 0 Stadt
76436 577.3 0 Stadt
76437 577.12 0 Stadt
76438 574.17 0 Stadt
76439 575.46 0.23948 Stadt
76440 576.42 0 Stadt
76445 564.85 0 Stadt
76447 569.46 0 Stadt
76689 576.41 0 Stadt
76691 583.61 0.36492 Stadt
76692 635.761 0 Stadt
76693 567.18 0 Stadt
76694 565.55 0 Stadt
76695 570.56 0 Stadt
76696 564.045 0 Stadt
76699 580.09 0.068422 Stadt
76700 581.51 0 Stadt
76701 575.05 0 Stadt
76702 576.81 0 Stadt
76713 590.22 0 Stadt
76715 614.86 0 Stadt
76719 608.39 0 Stadt
76721 583.48 0.045615 Stadt
76722 573.27 0 Stadt
76723 574.18 0 Stadt
76725 566.22 0 Stadt
76726 576.21 0.057018 Stadt
76727 575.278 0 Stadt
76730 570.18 0.022807 Stadt
76738 593.817 0 Stadt
76739 607.2 0.51316 Stadt
76742 604.65 0 Stadt
76744 573.11 0 Stadt
76755 572.55 0 Stadt
76769 599.17 0.45615 Stadt
76770 584.24 0 Stadt
76772 577.85 0 Stadt
76773 594.44 0 Stadt
76774 593.96 0 Stadt
76779 615.62 0 Stadt
76780 577.77 0 Stadt
76783 597.86 0 Stadt
76784 576.15 0 Stadt
76795 616.6 0 Stadt
77009 563.61 0 Stadt
77010 576.38 0 Stadt
77011 576.94 0.057018 Stadt
77012 572.28 0.20527 Stadt
77013 571.34 0.47895 Stadt
77029 576.17 0 Stadt
77049 575.98 0 Stadt
77050 579.11 0 Stadt
77051 577.74 0 Stadt
77052 565.54 0.19386 Stadt
77053 571.05 0.045615 Stadt
77056 576.3 0 Stadt
77058 615.43 0 Stadt
77061 618.78 0 Stadt
77151 605.45 0 Stadt
77157 606.07 0.045615 Stadt
77158 576 0.36492 Stadt
77159 575.66 0.72983 Stadt
77160 574.25 0 Stadt
77162 604.51 0 Stadt
77164 576.73 0 Stadt
77165 566.03 0 Stadt
77166 574.84 0 Stadt
77171 598.56 0 Stadt
77172 607.55 0 Stadt
77173 591.59 0 Stadt
77175 622.95 0 Stadt
77185 573.63 0.3193 Stadt
77187 574.11 0 Stadt
77188 589 0 Stadt
77190 570.65 0 Stadt
77192 574.16 0 Stadt
77194 574.53 0 Stadt
77195 575.21 0 Stadt
77196 575.32 0 Stadt
77198 590.47 0 Stadt
77336 619.4 0 Stadt
77337 603.02 0 Stadt
77340 620.04 0 Stadt
77341 613.72 0.011404 Stadt
77344 612.77 0 Stadt
77345 577.48 1.5509 Stadt
77346 583.92 0 Stadt
77347 593.59 0 Stadt
77348 564.692 0 Stadt
77349 577.583 0 Stadt
77350 564.95 0 Stadt
77351 579.3 0.58159 Stadt
77352 580.24 0 Stadt
77353 572.174 0 Stadt
77354 580.89 1.1632 Stadt
77355 566.47 0 Stadt
77358 581.38 0.25088 Stadt
77359 571.41 0.079825 Stadt
77360 572.41 0.022807 Stadt
77377 618.43 0 Stadt
77378 597.22 0 Stadt